**Plastic clamp
**Simple example
**https://youtu.be/ier9Ww37Xtk
**<img src="clamp1.jpg">

*NODE, NSET=Nall
       1,5.000000000000e-01,8.875000000000e-01,-5.000000000000e-01
       2,5.000000000000e-01,8.875000000000e-01,5.000000000000e-01
       3,4.504844000000e-01,1.104442000000e+00,-5.000000000000e-01
       4,3.117449000000e-01,1.278416000000e+00,-5.000000000000e-01
       5,1.112605000000e-01,1.374964000000e+00,-5.000000000000e-01
       6,-1.112605000000e-01,1.374964000000e+00,-5.000000000000e-01
       7,-3.117449000000e-01,1.278416000000e+00,-5.000000000000e-01
       8,-4.504844000000e-01,1.104442000000e+00,-5.000000000000e-01
       9,-5.000000000000e-01,8.875000000000e-01,-5.000000000000e-01
      10,-4.504844000000e-01,6.705581000000e-01,-5.000000000000e-01
      11,-3.117449000000e-01,4.965843000000e-01,-5.000000000000e-01
      12,-1.112605000000e-01,4.000360000000e-01,-5.000000000000e-01
      13,1.112605000000e-01,4.000360000000e-01,-5.000000000000e-01
      14,3.117449000000e-01,4.965843000000e-01,-5.000000000000e-01
      15,4.504844000000e-01,6.705581000000e-01,-5.000000000000e-01
      16,4.504844000000e-01,1.104442000000e+00,5.000000000000e-01
      17,3.117449000000e-01,1.278416000000e+00,5.000000000000e-01
      18,1.112605000000e-01,1.374964000000e+00,5.000000000000e-01
      19,-1.112605000000e-01,1.374964000000e+00,5.000000000000e-01
      20,-3.117449000000e-01,1.278416000000e+00,5.000000000000e-01
** ... 8292 like lines cut
*ELEMENT, TYPE=C3D10, ELSET=Eall
   227,    30,    31,   103,    63,   139,   401,   400,   258,   257,   402 
   228,    71,    31,   103,    30,   277,   401,   403,   276,   139,   400 
   229,    16,    31,     2,   107,   214,   140,   123,   404,   406,   405 
   230,   108,    72,    38,    15,   408,   410,   407,   409,   282,   166 
   231,   103,    31,    61,    63,   401,   252,   411,   402,   257,   260 
   232,    36,   101,    39,   100,   412,   414,   172,   413,   416,   415 
   233,   107,   102,    71,   103,   418,   420,   417,   419,   421,   403 
   234,    48,    45,   106,   103,   208,   424,   422,   423,   426,   425 
   235,    37,    39,    36,   101,   173,   172,   162,   427,   414,   412 
   236,   102,    41,    47,    40,   429,   204,   428,   430,   180,   205 
   237,    79,    51,   102,    50,   311,   432,   431,   310,   222,   433 
   238,    45,    26,    25,    58,   197,   133,   194,   434,   242,   241 
   239,   107,   103,    71,    31,   419,   403,   417,   406,   401,   277 
   240,    68,    73,    91,   101,   298,   346,   345,   435,   437,   436 
   241,   103,   107,    61,    31,   419,   438,   411,   401,   406,   252 
   242,   102,    42,    51,    52,   439,   441,   432,   440,   442,   225 
   243,     4,    33,     3,    64,   144,   143,   110,   262,   443,   263 
   244,    19,    20,    52,    42,   127,   224,   223,   182,   185,   442 
   245,    96,   101,    90,    77,   444,   445,   360,   358,   446,   344 
   246,    69,    72,    14,    38,   285,   283,   272,   447,   410,   164 
** ... 4293 like lines cut
** Names based on slave
*NSET,NSET=slave 
640, 
641, 
668, 
669, 
670, 
671, 
672, 
673, 
977, 
978, 
979, 
980, 
981, 
1001, 
1002, 
1003, 
1004, 
1005, 
1023, 
1024, 
** ... 386 like lines cut
** Names based on master
*NSET,NSET=master 
1, 
2, 
3, 
4, 
5, 
6, 
7, 
8, 
9, 
10, 
11, 
12, 
13, 
14, 
15, 
16, 
17, 
18, 
19, 
20, 
** ... 280 like lines cut
** Names based on moveY
*NSET,NSET=moveY 
2, 
16, 
17, 
18, 
19, 
20, 
21, 
22, 
23, 
24, 
25, 
26, 
27, 
28, 
40, 
41, 
42, 
43, 
44, 
45, 
** ... 55 like lines cut
** Names based on Solid_2
*ELSET,ELSET=Solid_2 
227, 
228, 
229, 
230, 
231, 
232, 
233, 
234, 
235, 
236, 
237, 
238, 
239, 
240, 
241, 
242, 
243, 
244, 
245, 
246, 
** ... 257 like lines cut
** Names based on plastic
*ELSET,ELSET=plastic 
3310, 
3311, 
3312, 
3313, 
3314, 
3315, 
3316, 
3317, 
3318, 
3319, 
3320, 
3321, 
3322, 
3323, 
3324, 
3325, 
3326, 
3327, 
3328, 
3329, 
** ... 4016 like lines cut
** Names based on fixed
*NSET,NSET=fixed 
653, 
654, 
655, 
656, 
657, 
658, 
659, 
660, 
661, 
662, 
663, 
664, 
665, 
666, 
667, 
683, 
684, 
695, 
700, 
701, 
** ... 538 like lines cut
** Names based on C3D10
*ELSET,ELSET=C3D10 
227, 
228, 
229, 
230, 
231, 
232, 
233, 
234, 
235, 
236, 
237, 
238, 
239, 
240, 
241, 
242, 
243, 
244, 
245, 
246, 
** ... 4293 like lines cut
** Surfaces based on plastic
*SURFACE, NAME=plastic
** Surfaces based on slave
*SURFACE, NAME=slave
6797, S1
6814, S1
6102, S4
4310, S4
6333, S2
3812, S2
5091, S2
5348, S2
4796, S2
7320, S2
5350, S3
5407, S2
4470, S3
3635, S3
3637, S2
5859, S2
5869, S3
4373, S2
6225, S3
5527, S2
** ... 156 like lines cut
** Surfaces based on master
*SURFACE, NAME=master
386, S1
307, S1
229, S1
319, S1
326, S4
243, S4
389, S4
404, S1
490, S4
443, S3
364, S2
425, S2
491, S3
411, S3
448, S2
407, S3
365, S3
314, S3
503, S2
473, S3
** ... 116 like lines cut
** Surfaces based on C3D10
*SURFACE, NAME=C3D10
** Surfaces based on moveY
*SURFACE, NAME=moveY
388, S4
319, S4
420, S2
331, S2
291, S2
259, S3
289, S2
244, S2
441, S2
383, S4
369, S4
362, S1
456, S1
486, S3
298, S1
401, S2
238, S1
415, S4
381, S1
413, S4
** ... 10 like lines cut
** Surfaces based on Solid_2
*SURFACE, NAME=Solid_2
** Surfaces based on all
*SURFACE, NAME=all
386, S1
286, S2
307, S1
303, S3
229, S1
388, S4
319, S4
319, S1
326, S4
243, S1
243, S4
389, S4
426, S3
404, S4
404, S1
490, S4
443, S4
443, S3
479, S4
364, S2
** ... 2396 like lines cut
** Surfaces based on fixed
*SURFACE, NAME=fixed
6622, S3
3877, S1
3872, S3
7138, S3
5797, S4
3318, S1
6031, S2
4138, S4
4168, S3
7077, S4
6024, S4
7103, S3
4391, S4
6938, S3
6935, S2
4326, S3
3887, S1
6971, S3
5130, S3
5964, S3
** ... 230 like lines cut

*MATERIAL,NAME=steel
*ELASTIC
2.9000E+07,0.28


*DENSITY
7.3500E-04
*EXPANSION
7.2280E-06

*SOLID SECTION,MATERIAL=steel,ELSET=Eall


*MATERIAL,NAME=pla
*ELASTIC
5.0750E+05,0.27


*DENSITY
1.2172E-04
*EXPANSION
0.0000E+00

*SOLID SECTION,MATERIAL=pla,ELSET=plastic

*BOUNDARY
fixed,1,1,0
fixed,2,2,0
fixed,3,3,0

*BOUNDARY
moveY,1,1,0
moveY,2,2,0.8
moveY,3,3,0

*CONTACT PAIR,INTERACTION=SI1,TYPE=SURFACE TO SURFACE,ADJUST=0
slave,master
*SURFACE INTERACTION,NAME=SI1
*SURFACE BEHAVIOR,PRESSURE-OVERCLOSURE=Linear
1450000000,0

*FRICTION
0.1,145000000



*STEP,NLGEOM,INC=1000
*STATIC
0.05,1
  *NODE FILE 
U,
  *EL FILE
S,E,
*NODE PRINT,NSET=fixed
RF
*NODE PRINT,NSET=moveY
RF
*CONTACT OUTPUT
CDIS,CSTR 
*END STEP
