
*HEADING
Model: beam coupling with *RIGID BODY and *EQUATION

*NODE, NSET=Nall
       1,1.000000000000e+001,0.000000000000e+000,0.000000000000e+000
       2,5.000000000000e+000,0.000000000000e+000,0.000000000000e+000
       3,5.000000000000e+000,0.000000000000e+000,5.000000000000e+000
       4,1.000000000000e+001,0.000000000000e+000,5.000000000000e+000
       5,1.000000000000e+001,5.000000000000e+000,0.000000000000e+000
       6,5.000000000000e+000,5.000000000000e+000,0.000000000000e+000
       7,5.000000000000e+000,5.000000000000e+000,5.000000000000e+000
       8,1.000000000000e+001,5.000000000000e+000,5.000000000000e+000
       9,5.000000000000e+000,0.000000000000e+000,1.000000000000e+001
      10,1.000000000000e+001,0.000000000000e+000,1.000000000000e+001
      11,5.000000000000e+000,5.000000000000e+000,1.000000000000e+001
      12,1.000000000000e+001,5.000000000000e+000,1.000000000000e+001
      13,5.000000000000e+000,0.000000000000e+000,1.500000000000e+001
      14,1.000000000000e+001,0.000000000000e+000,1.500000000000e+001
      15,5.000000000000e+000,5.000000000000e+000,1.500000000000e+001
      16,1.000000000000e+001,5.000000000000e+000,1.500000000000e+001
      17,5.000000000000e+000,0.000000000000e+000,2.000000000000e+001
      18,1.000000000000e+001,0.000000000000e+000,2.000000000000e+001
      19,5.000000000000e+000,5.000000000000e+000,2.000000000000e+001
      20,1.000000000000e+001,5.000000000000e+000,2.000000000000e+001
** ... 360 like lines cut
*ELEMENT, TYPE=C3D8, ELSET=Eall
     1,     1,     2,     3,     4,     5,     6,     7,     8
     2,     4,     3,     9,    10,     8,     7,    11,    12
     3,    10,     9,    13,    14,    12,    11,    15,    16
     4,    14,    13,    17,    18,    16,    15,    19,    20
     5,    18,    17,    21,    22,    20,    19,    23,    24
     6,    22,    21,    25,    26,    24,    23,    27,    28
     7,    26,    25,    29,    30,    28,    27,    31,    32
     8,    30,    29,    33,    34,    32,    31,    35,    36
     9,    34,    33,    37,    38,    36,    35,    39,    40
    10,    38,    37,    41,    42,    40,    39,    43,    44
    11,    42,    41,    45,    46,    44,    43,    47,    48
    12,    46,    45,    49,    50,    48,    47,    51,    52
    13,    50,    49,    53,    54,    52,    51,    55,    56
    14,    54,    53,    57,    58,    56,    55,    59,    60
    15,    58,    57,    61,    62,    60,    59,    63,    64
    16,    62,    61,    65,    66,    64,    63,    67,    68
    17,    66,    65,    69,    70,    68,    67,    71,    72
    18,    70,    69,    73,    74,    72,    71,    75,    76
    19,    74,    73,    77,    78,    76,    75,    79,    80
    20,    78,    77,    81,    82,    80,    79,    83,    84
** ... 140 like lines cut

** Names based on support_01
*NSET,NSET=Nsupport_01 
1, 
2, 
5, 
6, 
85, 
86, 
127, 
129, 
169,

** Names based on support_02
*NSET,NSET=Nsupport_02 
270, 
271, 
272, 
273, 
314, 
315, 
356, 
357, 
378,

** Names based on surface_01
*NSET,NSET=Nsurface_01 
81, 
82, 
83, 
84, 
125, 
126, 
167, 
168, 
189,

** Names based on surface_02
*NSET,NSET=Nsurface_02 
190, 
191, 
194, 
195, 
274, 
275, 
316, 
318, 
358,

****TRANSLATION & ROTATION
***RIGID BODY,NSET=Nsurface_01,REF NODE=379,ROT NODE=380
***RIGID BODY,NSET=Nsurface_02,REF NODE=379,ROT NODE=380

****TRANSLATION
***RIGID BODY,NSET=Nsurface_01,REF NODE=379
***RIGID BODY,NSET=Nsurface_02,REF NODE=379

****ROTATION
*RIGID BODY,NSET=Nsurface_01,ROT NODE=380
*RIGID BODY,NSET=Nsurface_02,ROT NODE=380

*MATERIAL, Name=steel

*ELASTIC
210000, 0.3

*DENSITY
7.86E-9

*SOLID SECTION, Elset=Eall, Material=steel

*STEP

*STATIC

*BOUNDARY
Nsupport_01,1,3,0
Nsupport_02,1,3,0

*DLOAD,
Eall,GRAV,9810,1,0,0

*NODE FILE
U

*EL FILE
S,

*END STEP