*NODE
1,0.0006766242921297,0.0006806909056472,0.001860334182587
2,0.003813791848291,-2.690448713521E-05,0.0018868914963
3,0.0068090689,-5.811E-06,0.00188193474
4,0.0006777268462199,0.0006677957283115,0.00124622321514
5,7.482476544585E-06,0.0007247143479057,0.001873969773565
6,0.0031909311,-5.811E-06,0.00188193474
7,0.001335998498746,0.0005625186951214,0.001865506143981
8,0.0086849654,0.000453738,0.00062760008
9,0.00932227315378,0.0006677957283115,0.00124622321514
10,0.00932337570787,0.0006806909056472,1.466581741274E-05
11,0.0025765244,0.00014485,0.00187772813
12,0.007399298857174,0.000241882631057,0.001878120069401
13,0.0093349729,0.0005686081,0.0006280482
14,0.0080476889,0.000309152,2.56654E-06
15,0.006788816759484,0.0001006812703746,0.0006221459493834
16,0.0080488486,0.000305381,0.001249143658
17,0.0019523111,0.000309152,0.00187243346
18,7.967225897085E-06,0.0007246807864919,0.001249486077963
19,0.006788816759484,0.0001006812703746,0.001252854050617
20,0.0067878313286,9.189960889686E-05,-8.200627058471E-06
** ... 522 like lines cut
*ELEMENT,TYPE=C3D20
1,66,59,75,71,72,85,60,65,137,138,139,140,145,146,147,
148,141,142,143,144
2,59,78,80,75,85,56,52,60,149,150,151,138,154,155,156,
146,142,152,153,143
3,71,75,64,69,65,60,74,68,139,157,158,159,147,162,163,
164,144,143,160,161
4,51,66,71,61,93,72,65,84,165,140,166,167,170,148,171,
172,168,141,144,169
5,78,62,77,80,56,81,57,52,173,174,175,150,178,179,180,
155,152,176,177,153
6,75,80,79,64,60,52,53,74,151,181,182,157,156,184,185,
162,143,153,183,160
7,69,64,11,6,68,74,128,134,158,186,187,188,163,191,192,
193,161,160,189,190
8,61,71,69,54,84,65,68,92,166,159,194,195,171,164,197,
198,169,144,161,196
9,89,51,61,91,42,93,84,37,199,167,200,201,204,172,205,
206,202,168,169,203
10,62,48,49,77,81,99,95,57,207,208,209,174,212,213,214,
179,176,210,211,177
** ... 76 like lines cut
*ELEMENT,TYPE=C3D8
49,463,494,531,477,464,495,532,478
50,493,507,540,530,494,508,541,531
51,494,508,541,531,495,509,542,532
52,495,509,542,532,496,510,435,533
53,496,510,435,533,497,512,438,534
54,497,512,438,534,498,513,445,535
55,498,513,445,535,499,514,450,536
56,499,514,450,536,500,517,455,537
57,500,517,455,537,503,518,456,538
58,464,495,532,478,465,496,533,482
59,465,496,533,482,466,497,534,486
60,506,504,458,439,511,505,459,446
61,511,505,459,446,515,520,460,447
62,515,520,460,447,516,525,461,448
63,516,525,461,448,519,539,472,449
64,519,539,472,449,521,457,473,451
65,521,457,473,451,522,502,474,452
66,522,502,474,452,523,436,475,453
67,523,436,475,453,524,437,476,454
68,466,497,534,486,467,498,535,487
** ... 12 like lines cut
*ELSET,ELSET=bumpers
49
50
51
52
53
54
55
56
57
58
59
60
61
62
63
64
65
66
67
68
** ... 12 like lines cut
*ELSET,ELSET=film
1
2
3
4
5
6
7
8
9
10
11
12
13
14
15
16
17
18
19
20
** ... 28 like lines cut
*SURFACE,NAME=s1
79,S3
78,S3
57,S3
69,S3
56,S3
68,S3
55,S3
59,S3
54,S3
58,S3
53,S3
49,S3
52,S3
80,S3
51,S3
50,S3
77,S5
76,S5
67,S5
75,S5
** ... 12 like lines cut
*SURFACE,NAME=s2
2,S1
1,S1
6,S1
5,S1
4,S1
3,S1
12,S1
11,S1
10,S1
9,S1
8,S1
7,S1
18,S1
17,S1
16,S1
15,S1
14,S1
13,S1
23,S1
22,S1
** ... 76 like lines cut
*SURFACE,NAME=pfaces
7,S1
4,S1
13,S1
12,S1
3,S1
9,S1
8,S1
2,S1
19,S1
18,S1
6,S1
15,S1
14,S1
5,S1
24,S1
23,S1
11,S1
21,S1
20,S1
10,S1
** ... 28 like lines cut
*MATERIAL,NAME=mat_film
*ELASTIC,TYPE=ISOTROPIC
100000000,0.3
*SOLID SECTION,ELSET=bumpers,MATERIAL=mat_film
*SOLID SECTION,ELSET=film,MATERIAL=mat_film
*BOUNDARY
5,1,,0
5,2,,0
5,3,,0
18,1,,0
18,2,,0
18,3,,0
25,1,,0
25,2,,0
25,3,,0
29,1,,0
29,2,,0
29,3,,0
30,1,,0
30,2,,0
30,3,,0
38,1,,0
38,2,,0
38,3,,0
43,1,,0
43,2,,0
** ... 250 like lines cut
*AMPLITUDE,NAME=Aconstant
0,1
*AMPLITUDE,NAME=A0
0,0
1,1

*****************************************************************
******* UNCOMMENT THESE LINES AND RUN WILL GET PAST BUCKING "POP"
** *CONTACT PAIR,INTERACTION=SI_2,TYPE=SURFACE TO SURFACE
** s2,s1
** *SURFACE INTERACTION,NAME=SI_2
** *SURFACE BEHAVIOR,PRESSURE-OVERCLOSURE=LINEAR
** 10000
*****************************************************************

*STEP,NLGEOM=YES,INC=100
*STATIC,DIRECT
0.01,1,0,0
*DSLOAD,AMPLITUDE=A0
pfaces,P,34000
*NODE FILE,GLOBAL=YES
U,RF
*EL FILE
S
*END STEP
