*Heading
RING BUCKLING ANALYSIS, CPS8, 4 X 20 MESH - modified from abaqus to ccx
*NODE
1, 99.5, 0, 0
2, 100.5, 0, 0
3, 0, 99.5, 0
4, 0, 100.5, 0
5, 99.75, 0, 0
6, 100, 0, 0
7, 100.25, 0, 0
8, 99.625, 0, 0
9, 99.875, 0, 0
10, 100.125, 0, 0
11, 100.375, 0, 0
12, 100.42251814219, 3.9456114837864, 0
13, 100.19019204018, 7.8851391206484, 0
14, 99.80337992397, 11.812508444513, 0
15, 99.262678229811, 15.721663736543, 0
16, 98.568920680525, 19.606577362621, 0
17, 97.723176999967, 23.461259067518, 0
18, 96.726751263592, 27.27976521144, 0
19, 95.581179887663, 31.056207934682, 0
20, 94.28822926021, 34.784764236288, 0
** ... 549 like lines cut
******* E L E M E N T S *************
*ELEMENT, type=CPS8, ELSET=Surface1
342, 1, 5, 177, 136, 8, 294, 295, 176
343, 136, 177, 178, 135, 295, 296, 297, 175
344, 135, 178, 179, 134, 297, 298, 299, 174
345, 134, 179, 180, 133, 299, 300, 301, 173
346, 133, 180, 181, 132, 301, 302, 303, 172
347, 132, 181, 182, 131, 303, 304, 305, 171
348, 131, 182, 183, 130, 305, 306, 307, 170
349, 130, 183, 184, 129, 307, 308, 309, 169
350, 129, 184, 185, 128, 309, 310, 311, 168
351, 128, 185, 186, 127, 311, 312, 313, 167
352, 127, 186, 187, 126, 313, 314, 315, 166
353, 126, 187, 188, 125, 315, 316, 317, 165
354, 125, 188, 189, 124, 317, 318, 319, 164
355, 124, 189, 190, 123, 319, 320, 321, 163
356, 123, 190, 191, 122, 321, 322, 323, 162
357, 122, 191, 192, 121, 323, 324, 325, 161
358, 121, 192, 193, 120, 325, 326, 327, 160
359, 120, 193, 194, 119, 327, 328, 329, 159
360, 119, 194, 195, 118, 329, 330, 331, 158
361, 118, 195, 196, 117, 331, 332, 333, 157
** ... 140 like lines cut
*ELSET,ELSET=quarter_ring
342, 343, 344, 345, 346, 347, 348, 349, 350, 351, 
352, 353, 354, 355, 356, 357, 358, 359, 360, 361, 
362, 363, 364, 365, 366, 367, 368, 369, 370, 371, 
372, 373, 374, 375, 376, 377, 378, 379, 380, 381, 
382, 383, 384, 385, 386, 387, 388, 389, 390, 391, 
392, 393, 394, 395, 396, 397, 398, 399, 400, 401, 
402, 403, 404, 405, 406, 407, 408, 409, 410, 411, 
412, 413, 414, 415, 416, 417, 418, 419, 420, 421, 
422, 423, 424, 425, 426, 427, 428, 429, 430, 431, 
432, 433, 434, 435, 436, 437, 438, 439, 440, 441, 
442, 443, 444, 445, 446, 447, 448, 449, 450, 451, 
452, 453, 454, 455, 456, 457, 458, 459, 460, 461, 
462, 463, 464, 465, 466, 467, 468, 469, 470, 471, 
472, 473, 474, 475, 476, 477, 478, 479, 480, 481, 
482, 483, 484, 485, 486, 487, 488, 489, 490, 491, 
492, 493, 494, 495, 496, 497, 498, 499, 500, 501, 
*NSET,NSET=SYM
6, 7, 5, 1, 2, 10, 9, 8, 11, 
*NSET,NSET=VARY
3, 4, 97, 96, 95, 94, 91, 93, 92, 
*NSET,NSET=quarter_ring
14, 13, 6, 15, 16, 7, 18, 17, 5, 12, 
1, 3, 4, 2, 19, 23, 24, 20, 26, 27, 
22, 28, 21, 25, 29, 30, 31, 73, 148, 89, 
149, 141, 83, 80, 139, 142, 75, 87, 137, 78, 
85, 145, 146, 72, 81, 69, 76, 82, 97, 79, 
88, 84, 90, 71, 96, 95, 70, 74, 138, 77, 
86, 94, 140, 143, 144, 147, 166, 300, 152, 158, 
310, 172, 175, 294, 176, 311, 173, 314, 302, 315, 
316, 317, 167, 160, 168, 174, 162, 164, 157, 171, 
295, 159, 303, 155, 170, 298, 304, 151, 156, 165, 
153, 161, 299, 301, 305, 307, 150, 154, 163, 297, 
169, 309, 312, 308, 296, 313, 306, 321, 329, 330, 
331, 328, 320, 324, 326, 319, 318, 322, 327, 323, 
325, 347, 348, 346, 349, 339, 352, 354, 350, 341, 
361, 358, 337, 366, 345, 357, 372, 373, 333, 332, 
334, 351, 365, 368, 344, 359, 363, 369, 356, 364, 
343, 353, 338, 355, 360, 362, 335, 367, 370, 336, 
371, 342, 340, 383, 377, 386, 379, 374, 376, 375, 
378, 381, 382, 380, 384, 385, 115, 44, 91, 106, 
98, 107, 33, 49, 38, 36, 43, 40, 93, 99, 
** ... 37 like lines cut
** *ELSET,ELSET=LOAD
** 462,463,464,465,466,467,468,469,
** 470,471,472,473,474,475,476,477,478,479,
** 480,481,482,483,484,485,486,487,488,489,
** 490,491,492,493,494,495,496,497,498,499,
** 500,501
*ELSET,ELSET=LOAD,GENERATE
462,501,1
*MATERIAL ,NAME=A1
*ELASTIC
30.0E6,0.0
*SOLID SECTION,MATERIAL=A1,ELSET=quarter_ring
1.0, 
** *TRANSFORM, NSET=VARY
** 1,1,0,-1,1,0.
*BOUNDARY
SYM,2
** VARY,2
VARY,1
*STEP
*BUCKLE
1,0.0001
** *BOUNDARY,LOAD CASE=2, OP=NEW
** SYM,2
** VARY,1
*DLOAD
LOAD,P2,1.0
*NODE FILE
U,RF
*EL FILE
S
*END STEP