**
**   Structure: NACA0012 Airfoil.
**   Test objective: compressible, inviscous 3D fluid flow.
**   Mach 0.85, alpha=1.0
**
**   Reference: Euler computations of Agard Working Group 07
**              Airfoil Test Cases
**              AIAA-85-0018
**		Thomas H. Pulliam and John T. Barton
**              NASA Ames Research Center, Moffett Field, CA
**
*NODE,NSET=Nall
1,0.100000E+01,0.000000E+00,0.
2,0.277960E+00,0.593990E-01,0.
3,0.997540E+00,0.345130E-03,0.
4,0.993910E+00,0.854240E-03,0.
5,0.988870E+00,0.156040E-02,0.
6,0.982560E+00,0.244060E-02,0.
7,0.975050E+00,0.348220E-02,0.
8,0.966340E+00,0.467810E-02,0.
9,0.956490E+00,0.601100E-02,0.
10,0.945550E+00,0.747110E-02,0.
11,0.933550E+00,0.905150E-02,0.
12,0.920540E+00,0.107390E-01,0.
13,0.906560E+00,0.125250E-01,0.
14,0.891660E+00,0.143960E-01,0.
15,0.875890E+00,0.163410E-01,0.
16,0.859270E+00,0.183510E-01,0.
17,0.841880E+00,0.204140E-01,0.
18,0.823770E+00,0.225180E-01,0.
19,0.804950E+00,0.246570E-01,0.
20,0.785510E+00,0.268160E-01,0.
** ... 7486 like lines cut
*ELEMENT,TYPE=F3D6,ELSET=Eall
1,1,131,156,3754,3884,3909
2,3,1,164,3756,3754,3917
3,1,162,164,3754,3915,3917
4,1,160,162,3754,3913,3915
5,1,158,160,3754,3911,3913
6,1,156,158,3754,3909,3911
7,2,42,949,3755,3795,4702
8,44,2,944,3797,3755,4697
9,2,949,944,3755,4702,4697
10,4,3,166,3757,3756,3919
11,3,164,166,3756,3917,3919
12,5,4,199,3758,3757,3952
13,4,191,199,3757,3944,3952
14,4,166,191,3757,3919,3944
15,6,5,201,3759,3758,3954
16,5,199,201,3758,3952,3954
17,7,6,382,3760,3759,4135
18,6,267,382,3759,4020,4135
19,6,201,267,3759,3954,4020
20,8,7,379,3761,3760,4132
** ... 7331 like lines cut
*NSET,NSET=BOU1
155 
 132
132 
 134
134 
 135
135 
 136
136 
 137
137 
 138
138 
 139
139 
 140
151 
 152
152 
 153
** ... 28 like lines cut
*NSET,NSET=BOU2
1 
 131
3 
 1
2 
 42
44 
 2
4 
 3
5 
 4
6 
 5
7 
 6
8 
 7
9 
 8
** ... 504 like lines cut
*NSET,NSET=BOU12
133 
 146
145 
 133
140 
 141
141 
 142
142 
 143
143 
 144
144 
 145
146 
 147
147 
 148
148 
 149
** ... 28 like lines cut
*EQUATION
2
3,2,-0.99030509E+00,3,1,-0.13890940E+00
2
3756,2,-0.99030509E+00,3756,1,-0.13890940E+00
2
2,2,-0.99995835E+00,2,1,0.91268019E-02
2
3755,2,-0.99995835E+00,3755,1,0.91268019E-02
2
44,2,-0.99981144E+00,44,1,0.19418571E-01
2
3797,2,-0.99981144E+00,3797,1,0.19418571E-01
2
4,2,-0.99031868E+00,4,1,-0.13881252E+00
2
3757,2,-0.99031868E+00,3757,1,-0.13881252E+00
2
5,2,-0.99037335E+00,5,1,-0.13842191E+00
2
3758,2,-0.99037335E+00,3758,1,-0.13842191E+00
** ... 500 like lines cut
*MATERIAL,NAME=AIR
*CONDUCTIVITY
0.
*FLUID CONSTANTS
1.,1.d-20,293.
*SPECIFIC GAS CONSTANT
0.285714286d0
*SOLID SECTION,ELSET=Eall,MATERIAL=AIR
*PHYSICAL CONSTANTS,ABSOLUTE ZERO=0.
*INITIAL CONDITIONS,TYPE=FLUID VELOCITY
Nall,1,0.99984770
Nall,2,0.01745241
Nall,3,0.d0
*INITIAL CONDITIONS,TYPE=PRESSURE
Nall,0.98863075
*INITIAL CONDITIONS,TYPE=TEMPERATURE
Nall,3.46020761
*VALUES AT INFINITY
3.46020761,1.,0.98863075,1.,1.
**
*STEP,INCF=200000,SHOCK SMOOTHING=0.02
*CFD,STEADY STATE,COMPRESSIBLE
1.,1.
*BOUNDARY
BOU1,11,11,3.46020761
BOU1,1,1,0.99984770
BOU1,2,2,0.01745241
BOU1,8,8,0.98863075
Nall,3,3,0.
*NODE FILE,FREQUENCYF=4000
VF,PSF,CP,TSF,TTF,MACH
*END STEP
