*NODE, NSET=Nall
       1,2.000000000000e+00,1.000000000000e+00,0.000000000000e+00
       2,2.025000000000e+00,1.000000000000e+00,0.000000000000e+00
       3,2.025000000000e+00,1.000000000000e+00,1.000000000000e-01
       4,2.000000000000e+00,1.000000000000e+00,1.000000000000e-01
       5,2.000000000000e+00,9.750000000000e-01,0.000000000000e+00
       6,2.025000000000e+00,9.750000000000e-01,-1.387778780781e-17
       7,2.025000000000e+00,9.750000000000e-01,1.000000000000e-01
       8,2.000000000000e+00,9.750000000000e-01,1.000000000000e-01
       9,2.000000000000e+00,9.500000000000e-01,0.000000000000e+00
      10,2.025000000000e+00,9.500000000000e-01,-6.938893903907e-18
      11,2.025000000000e+00,9.500000000000e-01,1.000000000000e-01
      12,2.000000000000e+00,9.500000000000e-01,1.000000000000e-01
      13,2.000000000000e+00,9.250000000000e-01,0.000000000000e+00
      14,2.025000000000e+00,9.250000000000e-01,-2.081668171172e-17
      15,2.025000000000e+00,9.250000000000e-01,1.000000000000e-01
      16,2.000000000000e+00,9.250000000000e-01,1.000000000000e-01
      17,2.000000000000e+00,9.000000000000e-01,0.000000000000e+00
      18,2.025000000000e+00,9.000000000000e-01,6.938893903907e-18
      19,2.025000000000e+00,9.000000000000e-01,1.000000000000e-01
      20,2.000000000000e+00,9.000000000000e-01,1.000000000000e-01
** ... 23022 like lines cut
*ELEMENT, TYPE=F3D8, ELSET=Eall
     1,     1,     2,     3,     4,     5,     6,     7,     8
     2,     5,     6,     7,     8,     9,    10,    11,    12
     3,     9,    10,    11,    12,    13,    14,    15,    16
     4,    13,    14,    15,    16,    17,    18,    19,    20
     5,    17,    18,    19,    20,    21,    22,    23,    24
     6,    21,    22,    23,    24,    25,    26,    27,    28
     7,    25,    26,    27,    28,    29,    30,    31,    32
     8,    29,    30,    31,    32,    33,    34,    35,    36
     9,    33,    34,    35,    36,    37,    38,    39,    40
    10,    37,    38,    39,    40,    41,    42,    43,    44
    11,    41,    42,    43,    44,    45,    46,    47,    48
    12,    45,    46,    47,    48,    49,    50,    51,    52
    13,    49,    50,    51,    52,    53,    54,    55,    56
    14,    53,    54,    55,    56,    57,    58,    59,    60
    15,    57,    58,    59,    60,    61,    62,    63,    64
    16,    61,    62,    63,    64,    65,    66,    67,    68
    17,    65,    66,    67,    68,    69,    70,    71,    72
    18,    69,    70,    71,    72,    73,    74,    75,    76
    19,    73,    74,    75,    76,    77,    78,    79,    80
    20,    77,    78,    79,    80,    81,    82,    83,    84
** ... 11180 like lines cut
** Names based on Nin
*NSET,NSET=Nin 
13367, 
13370, 
13371, 
13374, 
13375, 
13378, 
13379, 
13382, 
13383, 
13386, 
13387, 
13390, 
13391, 
13394, 
13395, 
13398, 
13399, 
13402, 
13403, 
13406, 
** ... 62 like lines cut
** Names based on Nout
*NSET,NSET=Nout 
20011, 
20012, 
20013, 
20014, 
20015, 
20016, 
20017, 
20018, 
20019, 
20020, 
20021, 
20022, 
20023, 
20024, 
20025, 
20026, 
20027, 
20028, 
20029, 
20030, 
** ... 58 like lines cut
** Sliders based on slid
*EQUATION
2
161,1,-0.375486, 161,2,-0.926828 
*EQUATION
2
164,1,-0.375486, 164,2,-0.926828 
*EQUATION
2
3523,1,0.375486, 3523,2,-0.926828 
*EQUATION
2
3524,1,0.366321, 3524,2,-0.930489 
*EQUATION
2
3525,1,0.366321, 3525,2,-0.930489 
*EQUATION
2
3526,1,0.375486, 3526,2,-0.926828 
*EQUATION
2
3607,1,0.347883, 3607,2,-0.937538 
*EQUATION
2
3608,1,0.347883, 3608,2,-0.937538 
*EQUATION
2
3689,1,0.329310, 3689,2,-0.944222 
*EQUATION
2
3690,1,0.329310, 3690,2,-0.944222 
*EQUATION
2
3771,1,0.310608, 3771,2,-0.950538 
*EQUATION
2
3772,1,0.310608, 3772,2,-0.950538 
*EQUATION
2
3853,1,0.291786, 3853,2,-0.956484 
*EQUATION
2
3854,1,0.291786, 3854,2,-0.956484 
*EQUATION
2
3935,1,0.272850, 3935,2,-0.962057 
*EQUATION
2
3936,1,0.272850, 3936,2,-0.962057 
*EQUATION
2
4017,1,0.253807, 4017,2,-0.967255 
*EQUATION
2
4018,1,0.253807, 4018,2,-0.967255 
*EQUATION
2
4099,1,0.234666, 4099,2,-0.972076 
*EQUATION
2
4100,1,0.234666, 4100,2,-0.972076 
*EQUATION
2
4181,1,0.215433, 4181,2,-0.976519 
*EQUATION
2
4182,1,0.215433, 4182,2,-0.976519 
*EQUATION
2
4263,1,0.196116, 4263,2,-0.980581 
*EQUATION
2
4264,1,0.196116, 4264,2,-0.980581 
*EQUATION
2
4345,1,0.176723, 4345,2,-0.984261 
*EQUATION
2
4346,1,0.176723, 4346,2,-0.984261 
*EQUATION
2
4427,1,0.157261, 4427,2,-0.987557 
*EQUATION
2
4428,1,0.157261, 4428,2,-0.987557 
*EQUATION
2
4509,1,0.137738, 4509,2,-0.990469 
*EQUATION
2
4510,1,0.137738, 4510,2,-0.990469 
*EQUATION
2
4591,1,0.118161, 4591,2,-0.992994 
*EQUATION
2
4592,1,0.118161, 4592,2,-0.992994 
*EQUATION
2
4673,1,0.098538, 4673,2,-0.995133 
*EQUATION
2
4674,1,0.098538, 4674,2,-0.995133 
*EQUATION
2
4755,1,0.078876, 4755,2,-0.996884 
*EQUATION
2
4756,1,0.078876, 4756,2,-0.996884 
*EQUATION
2
4837,1,0.059184, 4837,2,-0.998247 
*EQUATION
2
4838,1,0.059184, 4838,2,-0.998247 
*EQUATION
2
4919,1,0.039469, 4919,2,-0.999221 
*EQUATION
2
4920,1,0.039469, 4920,2,-0.999221 
*EQUATION
2
5001,1,0.019738, 5001,2,-0.999805 
*EQUATION
2
5002,1,0.019738, 5002,2,-0.999805 
*EQUATION
2
5083,2,-1., 5083,1,0.
*EQUATION
2
5084,2,-1., 5084,1,0.
***BOUNDARY
**5083,2 
***BOUNDARY
****5084,2 
*EQUATION
2
5165,1,-0.019738, 5165,2,-0.999805 
*EQUATION
2
5166,1,-0.019738, 5166,2,-0.999805 
*EQUATION
2
5247,1,-0.039469, 5247,2,-0.999221 
*EQUATION
2
5248,1,-0.039469, 5248,2,-0.999221 
*EQUATION
2
5329,1,-0.059184, 5329,2,-0.998247 
*EQUATION
2
5330,1,-0.059184, 5330,2,-0.998247 
*EQUATION
2
5411,1,-0.078876, 5411,2,-0.996884 
*EQUATION
2
5412,1,-0.078876, 5412,2,-0.996884 
*EQUATION
2
5493,1,-0.098538, 5493,2,-0.995133 
*EQUATION
2
5494,1,-0.098538, 5494,2,-0.995133 
*EQUATION
2
5575,1,-0.118161, 5575,2,-0.992994 
*EQUATION
2
5576,1,-0.118161, 5576,2,-0.992994 
*EQUATION
2
5657,1,-0.137738, 5657,2,-0.990469 
*EQUATION
2
5658,1,-0.137738, 5658,2,-0.990469 
*EQUATION
2
5739,1,-0.157261, 5739,2,-0.987557 
*EQUATION
2
5740,1,-0.157261, 5740,2,-0.987557 
*EQUATION
2
5821,1,-0.176723, 5821,2,-0.984261 
*EQUATION
2
5822,1,-0.176723, 5822,2,-0.984261 
*EQUATION
2
5903,1,-0.196116, 5903,2,-0.980581 
*EQUATION
2
5904,1,-0.196116, 5904,2,-0.980581 
*EQUATION
2
5985,1,-0.215433, 5985,2,-0.976519 
*EQUATION
2
5986,1,-0.215433, 5986,2,-0.976519 
*EQUATION
2
6067,1,-0.234666, 6067,2,-0.972076 
*EQUATION
2
6068,1,-0.234666, 6068,2,-0.972076 
*EQUATION
2
6149,1,-0.253807, 6149,2,-0.967255 
*EQUATION
2
6150,1,-0.253807, 6150,2,-0.967255 
*EQUATION
2
6231,1,-0.272850, 6231,2,-0.962057 
*EQUATION
2
6232,1,-0.272850, 6232,2,-0.962057 
*EQUATION
2
6313,1,-0.291786, 6313,2,-0.956484 
*EQUATION
2
6314,1,-0.291786, 6314,2,-0.956484 
*EQUATION
2
6395,1,-0.310608, 6395,2,-0.950538 
*EQUATION
2
6396,1,-0.310608, 6396,2,-0.950538 
*EQUATION
2
6477,1,-0.329310, 6477,2,-0.944222 
*EQUATION
2
6478,1,-0.329310, 6478,2,-0.944222 
*EQUATION
2
6559,1,-0.347883, 6559,2,-0.937538 
*EQUATION
2
6560,1,-0.347883, 6560,2,-0.937538 
*EQUATION
2
6641,1,-0.366321, 6641,2,-0.930489 
*EQUATION
2
6642,1,-0.366321, 6642,2,-0.930489 
** Names based on Nsliding
*NSET,NSET=Nsliding 
1, 
2, 
3, 
4, 
162, 
163, 
165, 
166, 
245, 
246, 
247, 
248, 
327, 
328, 
329, 
330, 
409, 
410, 
411, 
412, 
** ... 1018 like lines cut
*MATERIAL,NAME=AIR
*FLUID CONSTANTS
1.,0.
*SPECIFIC GAS CONSTANT
0.285714286
*CONDUCTIVITY
0.
*SOLID SECTION,ELSET=Eall,MATERIAL=AIR
*PHYSICAL CONSTANTS,ABSOLUTE ZERO=0.
*VALUES AT INFINITY
10.,1.,2.85714286,1.,1.
*INITIAL CONDITIONS,TYPE=FLUID VELOCITY
Nall,1,1.
Nall,2,0.
Nall,3,0.
*INITIAL CONDITIONS,TYPE=PRESSURE
Nall,2.85714286
*INITIAL CONDITIONS,TYPE=TEMPERATURE
Nall,10.
*STEP,INCF=20000,SHOCK SMOOTHING=0.128
*CFD,COMPRESSIBLE,STEADY STATE
1.e30,1.e30,,,
*BOUNDARY
Nall,3,3,0.
Nin,1,1,1.
Nin,2,2,0.
Nin,11,11,10.
Nin,8,8,2.857143
Nsliding,2,2,0.
*DFLUX
** DFlux based on flux
1, S1, 0.000000e+00
1, S3, 0.000000e+00
3161, S1, 0.000000e+00
3161, S3, 0.000000e+00
41, S1, 0.000000e+00
41, S3, 0.000000e+00
1, S5, 0.000000e+00
41, S5, 0.000000e+00
3161, S5, 0.000000e+00
2, S3, 0.000000e+00
3162, S3, 0.000000e+00
42, S3, 0.000000e+00
2, S5, 0.000000e+00
42, S5, 0.000000e+00
3162, S5, 0.000000e+00
3, S3, 0.000000e+00
3163, S3, 0.000000e+00
43, S3, 0.000000e+00
3, S5, 0.000000e+00
43, S5, 0.000000e+00
** ... 22940 like lines cut
*NODE FILE,FREQUENCYF=1000
VF,PSF,TSF,MACH,PTF,TTF
*END STEP
