**
**   Structure: Channel with bump; transsonic (Mach at entry 0.675)
**              Reference: J.H.Ferziger and M.Peric
**              Computational Methods for Fluid Dynamics
**              Springer 2002
**              - hex do not really work, therefore wedge
**
*NODE, NSET=Nall
       1,3.000000000000e+00,9.500000000000e-01,0.000000000000e+00
       2,3.000000000000e+00,9.750000000000e-01,0.000000000000e+00
       3,2.975412113008e+00,9.664866691007e-01,-1.210719351163e-09
       4,3.000000000000e+00,1.000000000000e+00,0.000000000000e+00
       5,2.975000000000e+00,1.000000000000e+00,0.000000000000e+00
       6,3.000000000000e+00,9.250000000000e-01,0.000000000000e+00
       7,2.972807259448e+00,9.395866393273e-01,-1.210719344225e-09
       8,2.935002525535e+00,9.776895299569e-01,-1.210719351163e-09
       9,2.921827139901e+00,9.576739420765e-01,-1.210719358102e-09
      10,2.947556688421e+00,9.551524579588e-01,-1.210719351163e-09
      11,2.965723435566e+00,9.088437378224e-01,-1.210719351163e-09
      12,2.950000000000e+00,1.000000000000e+00,0.000000000000e+00
      13,2.925000000000e+00,1.000000000000e+00,0.000000000000e+00
      14,2.725000000000e+00,1.000000000000e+00,0.000000000000e+00
      15,2.700000000000e+00,1.000000000000e+00,0.000000000000e+00
      16,2.726594103255e+00,9.625632268934e-01,-1.210719358102e-09
      17,2.956685287480e+00,9.795482171773e-01,-1.210719337286e-09
      18,2.825000000000e+00,1.000000000000e+00,0.000000000000e+00
      19,2.800000000000e+00,1.000000000000e+00,0.000000000000e+00
      20,2.817821751362e+00,9.709617224162e-01,-1.210719344225e-09
** ... 8284 like lines cut
*ELEMENT, TYPE=F3D6, ELSET=Eall
     1,     1,     2,     3,  4153,  4154,  4155
     2,     2,     4,     5,  4154,  4156,  4157
     3,     6,     1,     7,  4158,  4153,  4159
     4,     8,     9,    10,  4160,  4161,  4162
     5,     6,     7,    11,  4158,  4159,  4163
     6,    12,    13,     8,  4164,  4165,  4160
     7,    14,    15,    16,  4166,  4167,  4168
     8,    17,    12,     8,  4169,  4164,  4160
     9,     5,    12,    17,  4157,  4164,  4169
    10,    18,    19,    20,  4170,  4171,  4172
    11,    11,    21,    22,  4163,  4173,  4174
    12,     9,    23,    24,  4161,  4175,  4176
    13,    25,     6,    11,  4177,  4158,  4163
    14,    26,    25,    22,  4178,  4177,  4174
    15,    27,    28,    29,  4179,  4180,  4181
    16,    30,    18,    31,  4182,  4170,  4183
    17,    23,    32,    33,  4175,  4184,  4185
    18,    18,    20,    31,  4170,  4172,  4183
    19,    34,    35,    36,  4186,  4187,  4188
    20,    37,    34,    38,  4189,  4186,  4190
** ... 7962 like lines cut
** Names based on in
*NSET,NSET=Nin 
2777, 
2778, 
2785, 
2786, 
2788, 
2789, 
2792, 
2793, 
2802, 
2820, 
2821, 
2837, 
2860, 
2861, 
2863, 
2865, 
2883, 
2884, 
2893, 
2894, 
** ... 62 like lines cut
** Names based on out
*NSET,NSET=Nout 
1, 
2, 
4, 
6, 
25, 
26, 
34, 
35, 
37, 
45, 
46, 
79, 
80, 
159, 
160, 
270, 
271, 
283, 
284, 
290, 
** ... 62 like lines cut
** Names based on sliding
*NSET,NSET=Nsliding 
5, 
12, 
13, 
14, 
15, 
18, 
19, 
27, 
28, 
30, 
48, 
49, 
64, 
88, 
89, 
91, 
93, 
112, 
113, 
121, 
** ... 378 like lines cut
** Sliders based on dd
*EQUATION
2
1495,1,-0.039469, 1495,2,0.999221 
*EQUATION
2
1496,1,-0.019738, 1496,2,0.999805 
*EQUATION
2
1498,1,0.039469, 1498,2,0.999221 
*EQUATION
2
1499,1,0.059184, 1499,2,0.998247 
*EQUATION
2
1504,1,0.347883, 1504,2,0.937538 
*EQUATION
2
1505,1,0.357119, 1505,2,0.934059 
*EQUATION
2
1513,1,0.329310, 1513,2,0.944222 
*EQUATION
2
1517,1,0.291786, 1517,2,0.956484 
*EQUATION
2
1518,1,0.310608, 1518,2,0.950538 
*EQUATION
2
1599,1,-0.329310, 1599,2,0.944222 
*EQUATION
2
1601,1,-0.357119, 1601,2,0.934059 
*EQUATION
2
1602,1,-0.347883, 1602,2,0.937538 
*EQUATION
2
1608,1,-0.310608, 1608,2,0.950538 
*EQUATION
2
1611,1,-0.291786, 1611,2,0.956484 
*EQUATION
2
1630,1,-0.234666, 1630,2,0.972076 
*EQUATION
2
1631,1,-0.215433, 1631,2,0.976519 
*EQUATION
2
1832,1,0.272850, 1832,2,0.962057 
*EQUATION
2
1836,1,0.253807, 1836,2,0.967255 
*EQUATION
2
1840,1,0.215433, 1840,2,0.976519 
*EQUATION
2
1841,1,0.234666, 1841,2,0.972076 
*EQUATION
2
1844,1,0.176723, 1844,2,0.984261 
*EQUATION
2
1845,1,0.196116, 1845,2,0.980581 
*EQUATION
2
1854,1,0.137738, 1854,2,0.990469 
*EQUATION
2
1855,1,0.157261, 1855,2,0.987557 
*EQUATION
2
1865,1,0.098538, 1865,2,0.995133 
*EQUATION
2
1866,1,0.118161, 1866,2,0.992994 
*EQUATION
2
1900,1,-0.272850, 1900,2,0.962057 
*EQUATION
2
1901,1,-0.253807, 1901,2,0.967255 
*EQUATION
2
1910,1,-0.196116, 1910,2,0.980581 
*EQUATION
2
1911,1,-0.176723, 1911,2,0.984261 
*EQUATION
2
1928,1,-0.137738, 1928,2,0.990469 
*EQUATION
2
1940,1,-0.118161, 1940,2,0.992994 
*EQUATION
2
1941,1,-0.098538, 1941,2,0.995133 
*EQUATION
2
2235,1,-0.157261, 2235,2,0.987557 
*EQUATION
2
2335,1,0.019738, 2335,2,0.999805 
*BOUNDARY
2444,2 
*EQUATION
2
2545,1,0.078876, 2545,2,0.996884 
*EQUATION
2
2592,1,-0.078876, 2592,2,0.996884 
*EQUATION
2
2705,1,-0.059184, 2705,2,0.998247 
*EQUATION
2
5647,1,-0.039469, 5647,2,0.999221 
*EQUATION
2
5648,1,-0.019738, 5648,2,0.999805 
*EQUATION
2
5650,1,0.039469, 5650,2,0.999221 
*EQUATION
2
5651,1,0.059184, 5651,2,0.998247 
*EQUATION
2
5656,1,0.347883, 5656,2,0.937538 
*EQUATION
2
5657,1,0.357119, 5657,2,0.934059 
*EQUATION
2
5665,1,0.329310, 5665,2,0.944222 
*EQUATION
2
5669,1,0.291786, 5669,2,0.956484 
*EQUATION
2
5670,1,0.310608, 5670,2,0.950538 
*EQUATION
2
5751,1,-0.329310, 5751,2,0.944222 
*EQUATION
2
5753,1,-0.357119, 5753,2,0.934059 
*EQUATION
2
5754,1,-0.347883, 5754,2,0.937538 
*EQUATION
2
5760,1,-0.310608, 5760,2,0.950538 
*EQUATION
2
5763,1,-0.291786, 5763,2,0.956484 
*EQUATION
2
5782,1,-0.234666, 5782,2,0.972076 
*EQUATION
2
5783,1,-0.215433, 5783,2,0.976519 
*EQUATION
2
5984,1,0.272850, 5984,2,0.962057 
*EQUATION
2
5988,1,0.253807, 5988,2,0.967255 
*EQUATION
2
5992,1,0.215433, 5992,2,0.976519 
*EQUATION
2
5993,1,0.234666, 5993,2,0.972076 
*EQUATION
2
5996,1,0.176723, 5996,2,0.984261 
*EQUATION
2
5997,1,0.196116, 5997,2,0.980581 
*EQUATION
2
6006,1,0.137738, 6006,2,0.990469 
*EQUATION
2
6007,1,0.157261, 6007,2,0.987557 
*EQUATION
2
6017,1,0.098538, 6017,2,0.995133 
*EQUATION
2
6018,1,0.118161, 6018,2,0.992994 
*EQUATION
2
6052,1,-0.272850, 6052,2,0.962057 
*EQUATION
2
6053,1,-0.253807, 6053,2,0.967255 
*EQUATION
2
6062,1,-0.196116, 6062,2,0.980581 
*EQUATION
2
6063,1,-0.176723, 6063,2,0.984261 
*EQUATION
2
6080,1,-0.137738, 6080,2,0.990469 
*EQUATION
2
6092,1,-0.118161, 6092,2,0.992994 
*EQUATION
2
6093,1,-0.098538, 6093,2,0.995133 
*EQUATION
2
6387,1,-0.157261, 6387,2,0.987557 
*EQUATION
2
6487,1,0.019738, 6487,2,0.999805 
*BOUNDARY
6596,2 
*EQUATION
2
6697,1,0.078876, 6697,2,0.996884 
*EQUATION
2
6744,1,-0.078876, 6744,2,0.996884 
*EQUATION
2
6857,1,-0.059184, 6857,2,0.998247 
*MATERIAL,NAME=AIR
*FLUID CONSTANTS
1.,0.
*SPECIFIC GAS CONSTANT
0.285714286
*CONDUCTIVITY
0.
*SOLID SECTION,ELSET=Eall,MATERIAL=AIR
*PHYSICAL CONSTANTS,ABSOLUTE ZERO=0.
*INITIAL CONDITIONS,TYPE=FLUID VELOCITY
Nall,1,1.
Nall,2,0.
Nall,3,0.
*INITIAL CONDITIONS,TYPE=PRESSURE
Nall,1.5677
*INITIAL CONDITIONS,TYPE=TEMPERATURE
Nall,5.4869
*STEP,INCF=70000,SHOCK SMOOTHING=0.128
*CFD,COMPRESSIBLE,STEADY STATE
1.e30,1.e30,,,
*BOUNDARY
Nall,3,3,0.
Nin,1,1,1.
Nin,2,2,0.
Nin,11,11,5.4869
Nout,8,8,1.5677
Nsliding,2,2,0.
*DFLUX
** DFlux based on flux
2, S4, 0.000000e+00
9, S3, 0.000000e+00
6, S3, 0.000000e+00
539, S3, 0.000000e+00
7, S3, 0.000000e+00
185, S3, 0.000000e+00
1227, S3, 0.000000e+00
10, S3, 0.000000e+00
16, S3, 0.000000e+00
557, S3, 0.000000e+00
15, S3, 0.000000e+00
723, S3, 0.000000e+00
427, S3, 0.000000e+00
319, S3, 0.000000e+00
26, S3, 0.000000e+00
119, S3, 0.000000e+00
73, S3, 0.000000e+00
1389, S3, 0.000000e+00
1683, S3, 0.000000e+00
40, S3, 0.000000e+00
** ... 220 like lines cut
*NODE FILE,FREQUENCYF=70000
VF,PSF,TSF,MACH,PTF,TTF
*END STEP
