**
**   Structure: Flow past Cylinder.
**   Test objective: compressible, inviscous 3D fluid flow.
**   Mach 3.0
**
**   Reference: The Finite Element Method for Fluid Dynamics
**              O.C. Zienkiewicz, R.L. Taylor and P. Nithiarasu
**              6th edition (2005) p 218-219
**
*NODE, NSET=Nall
       1,0.000000000000e+00,-2.500000000000e+00,0.000000000000e+00
       2,0.000000000000e+00,-2.249546760037e+00,0.000000000000e+00
       3,0.000000000000e+00,-2.249546760037e+00,1.000000000000e+00
       4,0.000000000000e+00,-2.500000000000e+00,1.000000000000e+00
       5,1.250000000000e-01,-2.500000000000e+00,0.000000000000e+00
       6,1.118047820666e-01,-2.249498457744e+00,-1.110223024625e-16
       7,1.118047820666e-01,-2.249498457744e+00,1.000000000000e+00
       8,1.250000000000e-01,-2.500000000000e+00,1.000000000000e+00
       9,2.500000000000e-01,-2.500000000000e+00,0.000000000000e+00
      10,2.236057772723e-01,-2.249353685742e+00,-1.110223024625e-16
      11,2.236057772723e-01,-2.249353685742e+00,1.000000000000e+00
      12,2.500000000000e-01,-2.500000000000e+00,1.000000000000e+00
      13,3.750000000000e-01,-2.500000000000e+00,0.000000000000e+00
      14,3.353992018964e-01,-2.249112667199e+00,5.551115123126e-17
      15,3.353992018964e-01,-2.249112667199e+00,1.000000000000e+00
      16,3.750000000000e-01,-2.500000000000e+00,1.000000000000e+00
      17,5.000000000000e-01,-2.500000000000e+00,0.000000000000e+00
      18,4.471812838184e-01,-2.248775773686e+00,-1.110223024625e-16
      19,4.471812838184e-01,-2.248775773686e+00,1.000000000000e+00
      20,5.000000000000e-01,-2.500000000000e+00,1.000000000000e+00
** ... 7356 like lines cut
*ELEMENT, TYPE=F3D8, ELSET=Eall
     1,     1,     2,     3,     4,     5,     6,     7,     8
     2,     5,     6,     7,     8,     9,    10,    11,    12
     3,     9,    10,    11,    12,    13,    14,    15,    16
     4,    13,    14,    15,    16,    17,    18,    19,    20
     5,    17,    18,    19,    20,    21,    22,    23,    24
     6,    21,    22,    23,    24,    25,    26,    27,    28
     7,    25,    26,    27,    28,    29,    30,    31,    32
     8,    29,    30,    31,    32,    33,    34,    35,    36
     9,    33,    34,    35,    36,    37,    38,    39,    40
    10,    37,    38,    39,    40,    41,    42,    43,    44
    11,    41,    42,    43,    44,    45,    46,    47,    48
    12,    45,    46,    47,    48,    49,    50,    51,    52
    13,    49,    50,    51,    52,    53,    54,    55,    56
    14,    53,    54,    55,    56,    57,    58,    59,    60
    15,    57,    58,    59,    60,    61,    62,    63,    64
    16,    61,    62,    63,    64,    65,    66,    67,    68
    17,    65,    66,    67,    68,    69,    70,    71,    72
    18,    69,    70,    71,    72,    73,    74,    75,    76
    19,    73,    74,    75,    76,    77,    78,    79,    80
    20,    77,    78,    79,    80,    81,    82,    83,    84
** ... 3500 like lines cut
** Names based on in
*NSET,NSET=Nin 
3479, 
3482, 
4243, 
4246, 
4247, 
4250, 
4251, 
4254, 
4255, 
4258, 
4259, 
4262, 
4263, 
4266, 
4267, 
4270, 
4271, 
4274, 
4275, 
4278, 
** ... 78 like lines cut
** Names based on out
*NSET,NSET=Nout 
81, 
84, 
883, 
886, 
887, 
890, 
891, 
894, 
895, 
898, 
899, 
902, 
903, 
906, 
907, 
910, 
911, 
914, 
915, 
918, 
** ... 78 like lines cut
** Names based on farfield
*NSET,NSET=Nfarfield 
6733, 
6734, 
6735, 
6736, 
6743, 
6744, 
6751, 
6752, 
6759, 
6760, 
6767, 
6768, 
6775, 
6776, 
6783, 
6784, 
6791, 
6792, 
6799, 
6800, 
** ... 136 like lines cut
** Names based on wall
*NSET,NSET=Nwall 
841, 
842, 
843, 
844, 
845, 
846, 
847, 
848, 
849, 
850, 
851, 
852, 
853, 
854, 
855, 
856, 
857, 
858, 
859, 
860, 
** ... 300 like lines cut
*TRANSFORM,NSET=Nwall,TYPE=C
0.,0.,0.,0.,0.,1.
*MATERIAL,NAME=AIR
*CONDUCTIVITY
0.
*FLUID CONSTANTS
3.5,1.d-20,0.079365079
*SPECIFIC GAS CONSTANT
1.
*SOLID SECTION,ELSET=Eall,MATERIAL=AIR
*PHYSICAL CONSTANTS,ABSOLUTE ZERO=0.
*INITIAL CONDITIONS,TYPE=FLUID VELOCITY
Nall,1,1.
Nall,2,0.d0
Nall,3,0.d0
*INITIAL CONDITIONS,TYPE=PRESSURE
Nall,0.079365079
*INITIAL CONDITIONS,TYPE=TEMPERATURE
Nall,0.079365079
*VALUES AT INFINITY
0.079365079,1.,0.079365079,1.,1.
**
***STEP,INCF=200,SHOCK SMOOTHING=0.
*STEP,INCF=20000,SHOCK SMOOTHING=0.5
*CFD,STEADY STATE,COMPRESSIBLE
1.,1.
*BOUNDARY
Nin,11,11,0.079365079
Nin,1,1,1.
Nin,2,2,0.
Nin,8,8,0.079365079
Nall,3,3,0.
Nwall,1,1,0.
Nfarfield,2,2,0.
*NODE FILE,FREQUENCYF=2000
VF,PSF,TSF,TTF,MACH,CP
*END STEP
