** m, kg, s
** dyn_visc=kin_visc*rho
** cp=R/(1-1/kappa)
**
*NODE, NSET=Nall
       1,-1.801000000000e-01,-1.290000000000e-02,0.000000000000e+00
       2,-1.840621490655e-01,-1.188880076054e-02,-8.673617379884e-19
       3,-1.840621490655e-01,-1.188880076054e-02,1.000000000000e-02
       4,-1.801000000000e-01,-1.290000000000e-02,1.000000000000e-02
       5,-1.801651616185e-01,-1.325612392559e-02,0.000000000000e+00
       6,-1.841306976339e-01,-1.222939407969e-02,-8.673617379884e-19
       7,-1.841306976339e-01,-1.222939407969e-02,1.000000000000e-02
       8,-1.801651616185e-01,-1.325612392559e-02,1.000000000000e-02
       9,-1.802446773599e-01,-1.369069658729e-02,0.000000000000e+00
      10,-1.842141530636e-01,-1.264520131077e-02,-1.734723475977e-18
      11,-1.842141530636e-01,-1.264520131077e-02,1.000000000000e-02
      12,-1.802446773599e-01,-1.369069658729e-02,1.000000000000e-02
      13,-1.803417092213e-01,-1.422099905991e-02,0.000000000000e+00
      14,-1.843157045419e-01,-1.315288208084e-02,-1.734723475977e-18
      15,-1.843157045419e-01,-1.315288208084e-02,1.000000000000e-02
      16,-1.803417092213e-01,-1.422099905991e-02,1.000000000000e-02
      17,-1.804601157401e-01,-1.486811917870e-02,0.000000000000e+00
      18,-1.844391975330e-01,-1.377281045574e-02,-2.602085213965e-18
      19,-1.844391975330e-01,-1.377281045574e-02,1.000000000000e-02
      20,-1.804601157401e-01,-1.486811917870e-02,1.000000000000e-02
** ... 7608 like lines cut
*ELEMENT, TYPE=F3D8, ELSET=Eall
     1,     5,     6,     7,     8,     1,     2,     3,     4
     2,     9,    10,    11,    12,     5,     6,     7,     8
     3,    13,    14,    15,    16,     9,    10,    11,    12
     4,    17,    18,    19,    20,    13,    14,    15,    16
     5,    21,    22,    23,    24,    17,    18,    19,    20
     6,    25,    26,    27,    28,    21,    22,    23,    24
     7,    29,    30,    31,    32,    25,    26,    27,    28
     8,    33,    34,    35,    36,    29,    30,    31,    32
     9,    37,    38,    39,    40,    33,    34,    35,    36
    10,    41,    42,    43,    44,    37,    38,    39,    40
    11,     6,    47,    48,     7,     2,    45,    46,     3
    12,    10,    49,    50,    11,     6,    47,    48,     7
    13,    14,    51,    52,    15,    10,    49,    50,    11
    14,    18,    53,    54,    19,    14,    51,    52,    15
    15,    22,    55,    56,    23,    18,    53,    54,    19
    16,    26,    57,    58,    27,    22,    55,    56,    23
    17,    30,    59,    60,    31,    26,    57,    58,    27
    18,    34,    61,    62,    35,    30,    59,    60,    31
    19,    38,    63,    64,    39,    34,    61,    62,    35
    20,    42,    65,    66,    43,    38,    63,    64,    39
** ... 3656 like lines cut
** Names based on profil
*NSET,NSET=SOLIDSURFACE 
1, 
2, 
3, 
4, 
45, 
46, 
67, 
68, 
89, 
90, 
111, 
112, 
133, 
134, 
155, 
156, 
177, 
178, 
199, 
200, 
** ... 136 like lines cut
** Names based on in
*NSET,NSET=Nin 
6745, 
6746, 
6747, 
6748, 
6763, 
6764, 
6779, 
6780, 
6795, 
6796, 
6811, 
6812, 
6827, 
6828, 
6843, 
6844, 
6859, 
6860, 
6875, 
6876, 
** ... 94 like lines cut
** Names based on out
*NSET,NSET=Nout 
1737, 
1740, 
1741, 
1744, 
1745, 
1748, 
1749, 
1752, 
1753, 
1756, 
1757, 
1760, 
1761, 
1764, 
1765, 
1768, 
1769, 
1772, 
1773, 
1776, 
** ... 102 like lines cut
** Names based on wall
*NSET,NSET=Nwall 
6185, 
6186, 
6187, 
6188, 
6195, 
6196, 
6203, 
6204, 
6211, 
6212, 
6219, 
6220, 
6227, 
6228, 
6235, 
6236, 
6243, 
6244, 
6251, 
6252, 
** ... 148 like lines cut
*SURFACE,NAME=AIRFOIL
** Surfaces based on profil
*SURFACE, NAME=Sprofil
1, S2
630, S2
11, S2
21, S2
31, S2
41, S2
51, S2
61, S2
71, S2
81, S2
91, S2
101, S2
111, S2
121, S2
131, S2
141, S2
151, S2
161, S2
171, S2
181, S2
** ... 58 like lines cut
*MATERIAL,NAME=AIR
*CONDUCTIVITY
26.3e-3
*FLUID CONSTANTS
1004.85,1.786e-5,288.
*SPECIFIC GAS CONSTANT
287.1
*SOLID SECTION,ELSET=Eall,MATERIAL=AIR
*PHYSICAL CONSTANTS,ABSOLUTE ZERO=0.
*INITIAL CONDITIONS,TYPE=FLUID VELOCITY
Nall,1,90.
Nall,2,0.
Nall,3,0.
*INITIAL CONDITIONS,TYPE=PRESSURE
Nall,1.e5
*INITIAL CONDITIONS,TYPE=TEMPERATURE
Nall,288.
**
*VALUES AT INFINITY
288.,90.,1.e5,1.2,0.25
*NSET,NSET=FREESTREAMSURFACE
Nin,Nwall,Nout
**
***STEP,INCF=50000,SHOCK SMOOTHING=0.00
*STEP,INCF=50000,SHOCK SMOOTHING=0.04
*CFD,COMPRESSIBLE,STEADY STATE
1.,1.
*DFLUX
** DFlux based on profil
1, S2, 0.000000e+00
630, S2, 0.000000e+00
11, S2, 0.000000e+00
21, S2, 0.000000e+00
31, S2, 0.000000e+00
41, S2, 0.000000e+00
51, S2, 0.000000e+00
61, S2, 0.000000e+00
71, S2, 0.000000e+00
81, S2, 0.000000e+00
91, S2, 0.000000e+00
101, S2, 0.000000e+00
111, S2, 0.000000e+00
121, S2, 0.000000e+00
131, S2, 0.000000e+00
141, S2, 0.000000e+00
151, S2, 0.000000e+00
161, S2, 0.000000e+00
171, S2, 0.000000e+00
181, S2, 0.000000e+00
** ... 58 like lines cut
*BOUNDARY
Nall,3,3,0.
Nwall,2,2,0.
Nin,11,11,288.
Nin,1,1,90.
Nin,2,2,0.
Nin,8,8,1.e5
SOLIDSURFACE,1,2,0.
*NODE FILE,FREQUENCYF=10000
VF,PSF,PTF,TSF,TTF,MACH,CP
*EL FILE,FREQUENCYF=10000
HFLF,SVF
***SECTION PRINT,SURFACE=AIRFOIL,FREQUENCYF=10000
**DRAG
*END STEP
