*NODE, NSET=Nall
       1,-1.000000000000e+00,0.000000000000e+00,0.000000000000e+00
       2,-9.996988186962e-01,2.454122852291e-02,0.000000000000e+00
       3,-9.996988186962e-01,2.454122852291e-02,5.000000000000e-02
       4,-1.000000000000e+00,0.000000000000e+00,5.000000000000e-02
       5,-9.843750000000e-01,0.000000000000e+00,0.000000000000e+00
       6,-9.840785246541e-01,2.415777182724e-02,5.551115123126e-17
       7,-9.840785246541e-01,2.415777182724e-02,5.000000000000e-02
       8,-9.843750000000e-01,0.000000000000e+00,5.000000000000e-02
       9,-9.996988186962e-01,2.454122852291e-02,1.000000000000e-01
      10,-1.000000000000e+00,0.000000000000e+00,1.000000000000e-01
      11,-9.840785246541e-01,2.415777182724e-02,1.000000000000e-01
      12,-9.843750000000e-01,0.000000000000e+00,1.000000000000e-01
      13,-9.687500000000e-01,0.000000000000e+00,0.000000000000e+00
      14,-9.684582306119e-01,2.377431513157e-02,0.000000000000e+00
      15,-9.684582306119e-01,2.377431513157e-02,5.000000000000e-02
      16,-9.687500000000e-01,0.000000000000e+00,5.000000000000e-02
      17,-9.684582306119e-01,2.377431513157e-02,1.000000000000e-01
      18,-9.687500000000e-01,0.000000000000e+00,1.000000000000e-01
      19,-9.531250000000e-01,0.000000000000e+00,0.000000000000e+00
      20,-9.528379365698e-01,2.339085843590e-02,0.000000000000e+00
** ... 25324 like lines cut
*ELEMENT, TYPE=F3D8, ELSET=Eall
     1,     1,     2,     3,     4,     5,     6,     7,     8
     2,     4,     3,     9,    10,     8,     7,    11,    12
     3,     5,     6,     7,     8,    13,    14,    15,    16
     4,     8,     7,    11,    12,    16,    15,    17,    18
     5,    13,    14,    15,    16,    19,    20,    21,    22
     6,    16,    15,    17,    18,    22,    21,    23,    24
     7,    19,    20,    21,    22,    25,    26,    27,    28
     8,    22,    21,    23,    24,    28,    27,    29,    30
     9,    25,    26,    27,    28,    31,    32,    33,    34
    10,    28,    27,    29,    30,    34,    33,    35,    36
    11,    31,    32,    33,    34,    37,    38,    39,    40
    12,    34,    33,    35,    36,    40,    39,    41,    42
    13,    37,    38,    39,    40,    43,    44,    45,    46
    14,    40,    39,    41,    42,    46,    45,    47,    48
    15,    43,    44,    45,    46,    49,    50,    51,    52
    16,    46,    45,    47,    48,    52,    51,    53,    54
    17,    49,    50,    51,    52,    55,    56,    57,    58
    18,    52,    51,    53,    54,    58,    57,    59,    60
    19,    55,    56,    57,    58,    61,    62,    63,    64
    20,    58,    57,    59,    60,    64,    63,    65,    66
** ... 16364 like lines cut
** Names based on in
*NSET,NSET=Nwallin 
193, 
194, 
195, 
196, 
197, 
198, 
295, 
296, 
297, 
394, 
395, 
396, 
493, 
494, 
495, 
592, 
593, 
594, 
691, 
692, 
** ... 748 like lines cut
** Names based on out
*NSET,NSET=Nwallout 
1, 
2, 
3, 
4, 
9, 
10, 
199, 
200, 
203, 
298, 
299, 
302, 
397, 
398, 
401, 
496, 
497, 
500, 
595, 
596, 
** ... 748 like lines cut
*NSET,NSET=Nwall
Nwallin,Nwallout
*TRANSFORM,TYPE=C,NSET=Nall
0.,0.,0.,0.,0.,1.
*MATERIAL,NAME=WATER
*DENSITY
1.
*FLUID CONSTANTS
1.,1.
*CONDUCTIVITY
1.
*SOLID SECTION,ELSET=Eall,MATERIAL=WATER
*INITIAL CONDITIONS,TYPE=PRESSURE
Nall,1.
*INITIAL CONDITIONS,TYPE=FLUID VELOCITY
Nall,1,0.
Nall,2,0.
Nall,3,0.
*INITIAL CONDITIONS,TYPE=TEMPERATURE
Nall,1.
*STEP,INCF=30000
*CFD,STEADY STATE
*DLOAD
Eall,CENTRIF,16.,0.,0.,0.,0.,0.,1.
*BOUNDARY
Nall,3,3,0.
Nwallin,8,8,1.
**Nwallout,8,8,2.3
Nwall,1,1,0.
Nwallin,2,2,0.
Nwallout,2,2,-3.
Nwall,3,3,0.
Nwall,11,11,1.
*NODE FILE,FREQUENCYF=30000
VF,PSF,TSF
*END STEP
