**Rolling Contact
**Three bodies in contact. Wheel is rolling by surface.
**<img src="rolcont.jpg">

*NODE, NSET=Nall
       1,7.500000000000e-01,7.500000000000e-01,2.500000000000e-01
       2,7.500000000000e-01,7.500000000000e-01,0.000000000000e+00
       3,-1.110223024625e-16,0.000000000000e+00,0.000000000000e+00
       4,-1.110223024625e-16,0.000000000000e+00,2.500000000000e-01
       5,2.500000000000e-01,7.500000000000e-01,2.500000000000e-01
       6,2.500000000000e-01,7.500000000000e-01,0.000000000000e+00
       7,0.000000000000e+00,5.000000000000e-01,0.000000000000e+00
       8,0.000000000000e+00,5.000000000000e-01,2.500000000000e-01
       9,5.551115123126e-17,1.500000000000e+00,2.500000000000e-01
      10,5.551115123126e-17,1.500000000000e+00,0.000000000000e+00
      11,0.000000000000e+00,1.000000000000e+00,2.500000000000e-01
      12,0.000000000000e+00,1.000000000000e+00,0.000000000000e+00
      13,-7.500000000000e-01,7.500000000000e-01,0.000000000000e+00
      14,-7.500000000000e-01,7.500000000000e-01,2.500000000000e-01
      15,-2.500000000000e-01,7.500000000000e-01,0.000000000000e+00
      16,-2.500000000000e-01,7.500000000000e-01,2.500000000000e-01
      17,1.668300000000e-01,7.500000000000e-01,-2.500000000000e-01
      18,1.668300000000e-01,7.500000000000e-01,5.000000000000e-01
      19,2.490000000000e-01,7.500000000000e-01,-2.500000000000e-01
      20,2.490000000000e-01,7.500000000000e-01,5.000000000000e-01
** ... 13853 like lines cut
*ELEMENT, TYPE=C3D20, ELSET=Eall
  2983,     4,    84,   571,    56,    55,   567,  2371,   518,  3841,  4506,
        4505,  3807,  4492,  8598,  8597,  4366,  3806,  4501,  8599,  4377
  2984,    55,   567,  2371,   518,    54,   563,  2372,   507,  4492,  8598,
        8597,  4366,  4483,  8601,  8600,  4343,  3805,  4493,  8602,  4365
  2985,    54,   563,  2372,   507,     3,    77,   538,    43,  4483,  8601,
        8600,  4343,  3832,  4425,  4423,  3792,  3804,  4484,  8603,  4342
  2986,    56,   571,   572,    57,   518,  2371,  2373,   517,  4505,  4508,
        4507,  3808,  8597,  8605,  8604,  4364,  4377,  8599,  8606,  4376
  2987,   518,  2371,  2373,   517,   507,  2372,  2374,   506,  8597,  8605,
        8604,  4364,  8600,  8608,  8607,  4341,  4365,  8602,  8609,  4363
  2988,   507,  2372,  2374,   506,    43,   538,   537,    44,  8600,  8608,
        8607,  4341,  4423,  4424,  4421,  3793,  4342,  8603,  8610,  4340
  2989,    57,   572,   573,    58,   517,  2373,  2375,   516,  4507,  4510,
        4509,  3809,  8604,  8612,  8611,  4362,  4376,  8606,  8613,  4375
  2990,   517,  2373,  2375,   516,   506,  2374,  2376,   505,  8604,  8612,
        8611,  4362,  8607,  8615,  8614,  4339,  4363,  8609,  8616,  4361
  2991,   506,  2374,  2376,   505,    44,   537,   536,    45,  8607,  8615,
        8614,  4339,  4421,  4422,  4419,  3794,  4340,  8610,  8617,  4338
  2992,    58,   573,   574,    59,   516,  2375,  2377,   515,  4509,  4512,
        4511,  3810,  8611,  8619,  8618,  4360,  4375,  8613,  8620,  4374
** ... 1132 like lines cut
*ELEMENT, TYPE=C3D15, ELSET=Eall
  3559,    20,    18,   225,   214,   207,   929,  3998,  5476,  4011,
        5369,  9693,  5376,  3996,  3988,  5377
  3560,   214,   207,   929,   213,   206,   932,  5369,  9693,  5376,
        5370,  9694,  5383,  3995,  3987,  5384
  3561,   213,   206,   932,   212,   205,   935,  5370,  9694,  5383,
        5371,  9695,  5390,  3994,  3986,  5391
  3562,   212,   205,   935,   211,   204,   938,  5371,  9695,  5390,
        5372,  9696,  5397,  3993,  3985,  5398
  3563,   211,   204,   938,   210,   203,   941,  5372,  9696,  5397,
        5373,  9697,  5404,  3992,  3984,  5405
  3564,   210,   203,   941,   209,   202,   944,  5373,  9697,  5404,
        5374,  9698,  5411,  3991,  3983,  5412
  3565,   209,   202,   944,   208,   201,   947,  5374,  9698,  5411,
        5375,  9699,  5418,  3990,  3982,  5419
  3566,   208,   201,   947,    19,    17,   222,  5375,  9699,  5418,
        3997,  5474,  4007,  3989,  3981,  5425
*ELEMENT, TYPE=C3D20, ELSET=Eall
  3567,   225,    18,   238,   226,   929,   207,   951,   930,  5476,  4030,
        5477,  4012,  9693,  5439,  9700,  5378,  5377,  3988,  5438,  5379
  3568,   929,   207,   951,   930,   932,   206,   953,   933,  9693,  5439,
        9700,  5378,  9694,  5444,  9701,  5385,  5384,  3987,  5443,  5386
  3569,   932,   206,   953,   933,   935,   205,   955,   936,  9694,  5444,
        9701,  5385,  9695,  5449,  9702,  5392,  5391,  3986,  5448,  5393
  3570,   935,   205,   955,   936,   938,   204,   957,   939,  9695,  5449,
        9702,  5392,  9696,  5454,  9703,  5399,  5398,  3985,  5453,  5400
  3571,   938,   204,   957,   939,   941,   203,   959,   942,  9696,  5454,
        9703,  5399,  9697,  5459,  9704,  5406,  5405,  3984,  5458,  5407
  3572,   941,   203,   959,   942,   944,   202,   961,   945,  9697,  5459,
        9704,  5406,  9698,  5464,  9705,  5413,  5412,  3983,  5463,  5414
  3573,   944,   202,   961,   945,   947,   201,   963,   948,  9698,  5464,
        9705,  5413,  9699,  5469,  9706,  5420,  5419,  3982,  5468,  5421
  3574,   947,   201,   963,   948,   222,    17,   236,   223,  9699,  5469,
        9706,  5420,  5474,  4027,  5475,  4008,  5425,  3981,  5471,  5426
  3575,   226,   237,    24,   227,   930,   950,   234,   931,  5479,  4028,
        5478,  4013,  9708,  5435,  9707,  5380,  5379,  5436,  4022,  5381
  3576,   930,   950,   234,   931,   933,   952,   233,   934,  9708,  5435,
        9707,  5380,  9710,  5440,  9709,  5387,  5386,  5441,  4021,  5388
** ... 12 like lines cut
*ELEMENT, TYPE=C3D15, ELSET=Eall
  3583,   226,   238,   237,   930,   951,   950,  5477,  4029,  5479,
        9700,  5437,  9708,  5379,  5438,  5436
  3584,   930,   951,   950,   933,   953,   952,  9700,  5437,  9708,
        9701,  5442,  9710,  5386,  5443,  5441
  3585,   933,   953,   952,   936,   955,   954,  9701,  5442,  9710,
        9702,  5447,  9712,  5393,  5448,  5446
  3586,   936,   955,   954,   939,   957,   956,  9702,  5447,  9712,
        9703,  5452,  9714,  5400,  5453,  5451
  3587,   939,   957,   956,   942,   959,   958,  9703,  5452,  9714,
        9704,  5457,  9716,  5407,  5458,  5456
  3588,   942,   959,   958,   945,   961,   960,  9704,  5457,  9716,
        9705,  5462,  9718,  5414,  5463,  5461
  3589,   945,   961,   960,   948,   963,   962,  9705,  5462,  9718,
        9706,  5467,  9720,  5421,  5468,  5466
  3590,   948,   963,   962,   223,   236,   235,  9706,  5467,  9720,
        5475,  4026,  5473,  5426,  5471,  5470
  3591,   227,    24,    22,   931,   234,   221,  5478,  4024,  4014,
        9707,  5428,  5382,  5381,  4022,  4006
  3592,   931,   234,   221,   934,   233,   220,  9707,  5428,  5382,
        9709,  5429,  5389,  5388,  4021,  4005
** ... 28 like lines cut
*ELEMENT, TYPE=C3D20, ELSET=Eall
  3607,   249,    24,   262,   250,   964,   234,   986,   965,  5580,  4062,
        5581,  4044,  9721,  5543,  9728,  5482,  5481,  4022,  5542,  5483
  3608,   964,   234,   986,   965,   967,   233,   988,   968,  9721,  5543,
        9728,  5482,  9722,  5548,  9729,  5489,  5488,  4021,  5547,  5490
  3609,   967,   233,   988,   968,   970,   232,   990,   971,  9722,  5548,
        9729,  5489,  9723,  5553,  9730,  5496,  5495,  4020,  5552,  5497
  3610,   970,   232,   990,   971,   973,   231,   992,   974,  9723,  5553,
        9730,  5496,  9724,  5558,  9731,  5503,  5502,  4019,  5557,  5504
  3611,   973,   231,   992,   974,   976,   230,   994,   977,  9724,  5558,
        9731,  5503,  9725,  5563,  9732,  5510,  5509,  4018,  5562,  5511
  3612,   976,   230,   994,   977,   979,   229,   996,   980,  9725,  5563,
        9732,  5510,  9726,  5568,  9733,  5517,  5516,  4017,  5567,  5518
  3613,   979,   229,   996,   980,   982,   228,   998,   983,  9726,  5568,
        9733,  5517,  9727,  5573,  9734,  5524,  5523,  4016,  5572,  5525
  3614,   982,   228,   998,   983,   246,    23,   260,   247,  9727,  5573,
        9734,  5524,  5578,  4059,  5579,  4040,  5529,  4015,  5575,  5530
  3615,   250,   261,    28,   251,   965,   985,   258,   966,  5583,  4060,
        5582,  4045,  9736,  5539,  9735,  5484,  5483,  5540,  4054,  5485
  3616,   965,   985,   258,   966,   968,   987,   257,   969,  9736,  5539,
        9735,  5484,  9738,  5544,  9737,  5491,  5490,  5545,  4053,  5492
** ... 12 like lines cut
*ELEMENT, TYPE=C3D15, ELSET=Eall
  3623,   250,   262,   261,   965,   986,   985,  5581,  4061,  5583,
        9728,  5541,  9736,  5483,  5542,  5540
  3624,   965,   986,   985,   968,   988,   987,  9728,  5541,  9736,
        9729,  5546,  9738,  5490,  5547,  5545
  3625,   968,   988,   987,   971,   990,   989,  9729,  5546,  9738,
        9730,  5551,  9740,  5497,  5552,  5550
  3626,   971,   990,   989,   974,   992,   991,  9730,  5551,  9740,
        9731,  5556,  9742,  5504,  5557,  5555
  3627,   974,   992,   991,   977,   994,   993,  9731,  5556,  9742,
        9732,  5561,  9744,  5511,  5562,  5560
  3628,   977,   994,   993,   980,   996,   995,  9732,  5561,  9744,
        9733,  5566,  9746,  5518,  5567,  5565
  3629,   980,   996,   995,   983,   998,   997,  9733,  5566,  9746,
        9734,  5571,  9748,  5525,  5572,  5570
  3630,   983,   998,   997,   247,   260,   259,  9734,  5571,  9748,
        5579,  4058,  5577,  5530,  5575,  5574
  3631,   251,    28,    26,   966,   258,   245,  5582,  4056,  4046,
        9735,  5532,  5486,  5485,  4054,  4038
  3632,   966,   258,   245,   969,   257,   244,  9735,  5532,  5486,
        9737,  5533,  5493,  5492,  4053,  4037
** ... 28 like lines cut
*ELEMENT, TYPE=C3D20, ELSET=Eall
  3647,   273,    28,   286,   274,   999,   258,  1021,  1000,  5684,  4094,
        5685,  4076,  9749,  5647,  9756,  5586,  5585,  4054,  5646,  5587
  3648,   999,   258,  1021,  1000,  1002,   257,  1023,  1003,  9749,  5647,
        9756,  5586,  9750,  5652,  9757,  5593,  5592,  4053,  5651,  5594
  3649,  1002,   257,  1023,  1003,  1005,   256,  1025,  1006,  9750,  5652,
        9757,  5593,  9751,  5657,  9758,  5600,  5599,  4052,  5656,  5601
  3650,  1005,   256,  1025,  1006,  1008,   255,  1027,  1009,  9751,  5657,
        9758,  5600,  9752,  5662,  9759,  5607,  5606,  4051,  5661,  5608
  3651,  1008,   255,  1027,  1009,  1011,   254,  1029,  1012,  9752,  5662,
        9759,  5607,  9753,  5667,  9760,  5614,  5613,  4050,  5666,  5615
  3652,  1011,   254,  1029,  1012,  1014,   253,  1031,  1015,  9753,  5667,
        9760,  5614,  9754,  5672,  9761,  5621,  5620,  4049,  5671,  5622
  3653,  1014,   253,  1031,  1015,  1017,   252,  1033,  1018,  9754,  5672,
        9761,  5621,  9755,  5677,  9762,  5628,  5627,  4048,  5676,  5629
  3654,  1017,   252,  1033,  1018,   270,    27,   284,   271,  9755,  5677,
        9762,  5628,  5682,  4091,  5683,  4072,  5633,  4047,  5679,  5634
  3655,   274,   285,    32,   275,  1000,  1020,   282,  1001,  5687,  4092,
        5686,  4077,  9764,  5643,  9763,  5588,  5587,  5644,  4086,  5589
  3656,  1000,  1020,   282,  1001,  1003,  1022,   281,  1004,  9764,  5643,
        9763,  5588,  9766,  5648,  9765,  5595,  5594,  5649,  4085,  5596
** ... 12 like lines cut
*ELEMENT, TYPE=C3D15, ELSET=Eall
  3663,   274,   286,   285,  1000,  1021,  1020,  5685,  4093,  5687,
        9756,  5645,  9764,  5587,  5646,  5644
  3664,  1000,  1021,  1020,  1003,  1023,  1022,  9756,  5645,  9764,
        9757,  5650,  9766,  5594,  5651,  5649
  3665,  1003,  1023,  1022,  1006,  1025,  1024,  9757,  5650,  9766,
        9758,  5655,  9768,  5601,  5656,  5654
  3666,  1006,  1025,  1024,  1009,  1027,  1026,  9758,  5655,  9768,
        9759,  5660,  9770,  5608,  5661,  5659
  3667,  1009,  1027,  1026,  1012,  1029,  1028,  9759,  5660,  9770,
        9760,  5665,  9772,  5615,  5666,  5664
  3668,  1012,  1029,  1028,  1015,  1031,  1030,  9760,  5665,  9772,
        9761,  5670,  9774,  5622,  5671,  5669
  3669,  1015,  1031,  1030,  1018,  1033,  1032,  9761,  5670,  9774,
        9762,  5675,  9776,  5629,  5676,  5674
  3670,  1018,  1033,  1032,   271,   284,   283,  9762,  5675,  9776,
        5683,  4090,  5681,  5634,  5679,  5678
  3671,   275,    32,    30,  1001,   282,   269,  5686,  4088,  4078,
        9763,  5636,  5590,  5589,  4086,  4070
  3672,  1001,   282,   269,  1004,   281,   268,  9763,  5636,  5590,
        9765,  5637,  5597,  5596,  4085,  4069
** ... 28 like lines cut
*ELEMENT, TYPE=C3D20, ELSET=Eall
  3687,   290,    32,   296,   291,  1034,   282,  1056,  1035,  5781,  4108,
        5782,  4100,  9777,  5744,  9784,  5690,  5689,  4086,  5743,  5691
  3688,  1034,   282,  1056,  1035,  1037,   281,  1058,  1038,  9777,  5744,
        9784,  5690,  9778,  5749,  9785,  5697,  5696,  4085,  5748,  5698
  3689,  1037,   281,  1058,  1038,  1040,   280,  1060,  1041,  9778,  5749,
        9785,  5697,  9779,  5754,  9786,  5704,  5703,  4084,  5753,  5705
  3690,  1040,   280,  1060,  1041,  1043,   279,  1062,  1044,  9779,  5754,
        9786,  5704,  9780,  5759,  9787,  5711,  5710,  4083,  5758,  5712
  3691,  1043,   279,  1062,  1044,  1046,   278,  1064,  1047,  9780,  5759,
        9787,  5711,  9781,  5764,  9788,  5718,  5717,  4082,  5763,  5719
  3692,  1046,   278,  1064,  1047,  1049,   277,  1066,  1050,  9781,  5764,
        9788,  5718,  9782,  5769,  9789,  5725,  5724,  4081,  5768,  5726
  3693,  1049,   277,  1066,  1050,  1052,   276,  1068,  1053,  9782,  5769,
        9789,  5725,  9783,  5774,  9790,  5732,  5731,  4080,  5773,  5733
  3694,  1052,   276,  1068,  1053,   287,    31,   294,   288,  9783,  5774,
        9790,  5732,  5779,  4105,  5780,  4096,  5737,  4079,  5776,  5738
  3695,   291,   295,    18,   292,  1035,  1055,   207,  1036,  5784,  4106,
        5783,  4101,  9792,  5740,  9791,  5692,  5691,  5741,  3988,  5693
  3696,  1035,  1055,   207,  1036,  1038,  1057,   206,  1039,  9792,  5740,
        9791,  5692,  9794,  5745,  9793,  5699,  5698,  5746,  3987,  5700
** ... 12 like lines cut
*ELEMENT, TYPE=C3D15, ELSET=Eall
  3703,   291,   296,   295,  1035,  1056,  1055,  5782,  4107,  5784,
        9784,  5742,  9792,  5691,  5743,  5741
  3704,  1035,  1056,  1055,  1038,  1058,  1057,  9784,  5742,  9792,
        9785,  5747,  9794,  5698,  5748,  5746
  3705,  1038,  1058,  1057,  1041,  1060,  1059,  9785,  5747,  9794,
        9786,  5752,  9796,  5705,  5753,  5751
  3706,  1041,  1060,  1059,  1044,  1062,  1061,  9786,  5752,  9796,
        9787,  5757,  9798,  5712,  5758,  5756
  3707,  1044,  1062,  1061,  1047,  1064,  1063,  9787,  5757,  9798,
        9788,  5762,  9800,  5719,  5763,  5761
  3708,  1047,  1064,  1063,  1050,  1066,  1065,  9788,  5762,  9800,
        9789,  5767,  9802,  5726,  5768,  5766
  3709,  1050,  1066,  1065,  1053,  1068,  1067,  9789,  5767,  9802,
        9790,  5772,  9804,  5733,  5773,  5771
  3710,  1053,  1068,  1067,   288,   294,   293,  9790,  5772,  9804,
        5780,  4104,  5778,  5738,  5776,  5775
  3711,   292,    18,    20,  1036,   207,   214,  5783,  3998,  4102,
        9791,  5369,  5694,  5693,  3988,  3996
  3712,  1036,   207,   214,  1039,   206,   213,  9791,  5369,  5694,
        9793,  5370,  5701,  5700,  3987,  3995
** ... 12 like lines cut
*ELEMENT, TYPE=C3D20, ELSET=Eall
  3719,    24,   234,   950,   237,   262,   986,  2659,  1075,  4022,  5435,
        5436,  4028,  5542,  9806,  9805,  5807,  4062,  5543,  9807,  5802
  3720,   262,   986,  2659,  1075,   261,   985,  2660,  1076,  5542,  9806,
        9805,  5807,  5540,  9809,  9808,  5808,  4061,  5541,  9810,  5804
  3721,   261,   985,  2660,  1076,    28,   258,  1021,   286,  5540,  9809,
        9808,  5808,  4054,  5647,  5646,  4094,  4060,  5539,  9811,  5806
  3722,   237,   950,   951,   238,  1075,  2659,  2661,  1073,  5436,  5437,
        5438,  4029,  9805,  9813,  9812,  5803,  5802,  9807,  9814,  5797
  3723,  1075,  2659,  2661,  1073,  1076,  2660,  2662,  1074,  9805,  9813,
        9812,  5803,  9808,  9816,  9815,  5805,  5804,  9810,  9817,  5799
  3724,  1076,  2660,  2662,  1074,   286,  1021,  1020,   285,  9808,  9816,
        9815,  5805,  5646,  5645,  5644,  4093,  5806,  9811,  9818,  5801
  3725,   238,   951,   207,    18,  1073,  2661,  1055,   295,  5438,  5439,
        3988,  4030,  9812,  9819,  5741,  5798,  5797,  9814,  5740,  4106
  3726,  1073,  2661,  1055,   295,  1074,  2662,  1056,   296,  9812,  9819,
        5741,  5798,  9815,  9820,  5743,  5800,  5799,  9817,  5742,  4107
  3727,  1074,  2662,  1056,   296,   285,  1020,   282,    32,  9815,  9820,
        5743,  5800,  5644,  5643,  4086,  4092,  5801,  9818,  5744,  4108
  3728,   234,   233,   952,   950,   986,   988,  2663,  2659,  4021,  5440,
        5441,  5435,  5547,  9822,  9821,  9806,  5543,  5548,  9823,  9807
** ... 3724 like lines cut
** Names based on slave1
*NSET,NSET=slave1 
35, 
36, 
39, 
40, 
318, 
319, 
360, 
361, 
439, 
440, 
441, 
442, 
443, 
444, 
445, 
446, 
447, 
448, 
449, 
450, 
** ... 317 like lines cut
** Names based on master1
*NSET,NSET=master1 
1, 
2, 
3, 
4, 
9, 
10, 
13, 
14, 
41, 
42, 
43, 
44, 
45, 
46, 
47, 
48, 
49, 
50, 
51, 
52, 
** ... 508 like lines cut
** Names based on C3D15
*ELSET,ELSET=C3D15 
3559, 
3560, 
3561, 
3562, 
3563, 
3564, 
3565, 
3566, 
3583, 
3584, 
3585, 
3586, 
3587, 
3588, 
3589, 
3590, 
3591, 
3592, 
3593, 
3594, 
** ... 76 like lines cut
** Names based on dx
*NSET,NSET=dx 
33, 
34, 
35, 
36, 
37, 
38, 
39, 
40, 
297, 
298, 
299, 
300, 
301, 
302, 
303, 
304, 
305, 
306, 
307, 
308, 
** ... 434 like lines cut
** Names based on master2
*NSET,NSET=master2 
5, 
6, 
7, 
8, 
11, 
12, 
15, 
16, 
71, 
72, 
81, 
82, 
83, 
88, 
89, 
90, 
91, 
92, 
117, 
118, 
** ... 156 like lines cut
** Names based on move
*NSET,NSET=move 
17, 
18, 
19, 
20, 
21, 
22, 
23, 
24, 
25, 
26, 
27, 
28, 
29, 
30, 
31, 
32, 
222, 
223, 
224, 
225, 
** ... 164 like lines cut
** Names based on dydz
*NSET,NSET=dydz 
33, 
34, 
37, 
38, 
297, 
298, 
339, 
340, 
381, 
382, 
383, 
384, 
385, 
386, 
387, 
388, 
389, 
390, 
391, 
392, 
** ... 317 like lines cut
** Names based on C3D20
*ELSET,ELSET=C3D20 
2983, 
2984, 
2985, 
2986, 
2987, 
2988, 
2989, 
2990, 
2991, 
2992, 
2993, 
2994, 
2995, 
2996, 
2997, 
2998, 
2999, 
3000, 
3001, 
3002, 
** ... 2492 like lines cut
** Names based on slave2
*NSET,NSET=slave2 
19, 
20, 
21, 
22, 
25, 
26, 
29, 
30, 
208, 
209, 
210, 
211, 
212, 
213, 
214, 
215, 
216, 
217, 
218, 
219, 
** ... 396 like lines cut
** Surfaces based on slave1
*SURFACE, NAME=slave1
4361, S5
5561, S5
4390, S5
5590, S5
4961, S5
4990, S5
5562, S5
5563, S5
5564, S5
5565, S5
5566, S5
5567, S5
5568, S5
5569, S5
5570, S5
5571, S5
5572, S5
5573, S5
5574, S5
5575, S5
** ... 70 like lines cut
** Surfaces based on dydz
*SURFACE, NAME=dydz
3791, S3
4991, S3
3820, S3
5020, S3
4391, S3
4420, S3
4992, S3
4993, S3
4994, S3
4995, S3
4996, S3
4997, S3
4998, S3
4999, S3
5000, S3
5001, S3
5002, S3
5003, S3
5004, S3
5005, S3
** ... 70 like lines cut
** Surfaces based on master1
*SURFACE, NAME=master1
3022, S6
3168, S6
3024, S6
3166, S6
2985, S6
3312, S6
2983, S6
3310, S6
3129, S6
3456, S6
3127, S6
3454, S6
3273, S6
3415, S6
3271, S6
3417, S6
3023, S6
3167, S6
2988, S6
2991, S6
** ... 124 like lines cut
** Surfaces based on dx
*SURFACE, NAME=dx
3791, S1
4991, S1
4361, S1
5561, S1
3820, S2
5020, S2
4390, S2
5590, S2
4391, S1
3821, S1
3851, S1
3881, S1
3911, S1
3941, S1
3971, S1
4001, S1
4031, S1
4061, S1
4091, S1
4121, S1
** ... 100 like lines cut
** Surfaces based on C3D20
*SURFACE, NAME=C3D20
** Surfaces based on all
*SURFACE, NAME=all
3022, S6
3168, S6
3022, S1
3168, S2
3024, S6
3166, S6
3024, S2
3166, S1
2985, S6
2985, S2
3312, S6
3312, S2
2983, S6
3310, S6
2983, S1
3310, S1
3124, S1
3270, S2
3124, S4
3270, S4
** ... 2242 like lines cut
** Surfaces based on master2
*SURFACE, NAME=master2
3124, S4
3270, S4
3126, S4
3268, S4
3117, S4
3414, S4
3115, S4
3412, S4
3261, S4
3558, S4
3259, S4
3556, S4
3405, S4
3547, S4
3403, S4
3549, S4
3125, S4
3269, S4
3120, S4
3123, S4
** ... 28 like lines cut
** Surfaces based on move
*SURFACE, NAME=move
3566, S2
3718, S2
3574, S2
3788, S4
3702, S2
3559, S1
3711, S1
3567, S1
3725, S6
3695, S1
3598, S2
3606, S2
3591, S1
3599, S1
3582, S2
3782, S4
3614, S2
3575, S1
3719, S6
3607, S1
** ... 38 like lines cut
** Surfaces based on slave2
*SURFACE, NAME=slave2
3566, S5
3718, S5
3559, S5
3711, S5
3598, S5
3606, S5
3591, S5
3599, S5
3638, S5
3646, S5
3631, S5
3639, S5
3678, S5
3686, S5
3671, S5
3679, S5
3565, S5
3717, S5
3564, S5
3716, S5
** ... 108 like lines cut
** Surfaces based on C3D15
*SURFACE, NAME=C3D15

*MATERIAL,NAME=steel
*ELASTIC
2.9000E+07,0.28


*DENSITY
7.3500E-04
*EXPANSION
7.2280E-06

*SOLID SECTION,MATERIAL=steel,ELSET=Eall

** default amplitude
*AMPLITUDE,NAME=Amp0
0,0,1,1

*AMPLITUDE,NAME=Graph1
0,0,
0.5,-0.005,
1,-0.005,

*AMPLITUDE,NAME=Graph2
0,0,
0.5,1,

*BOUNDARY
dx,1,1,0

*BOUNDARY
dydz,2,2,0
dydz,3,3,0

*CONTACT PAIR,INTERACTION=SI2,TYPE=SURFACE TO SURFACE,ADJUST=0
slave1,master1
*SURFACE INTERACTION,NAME=SI2
*SURFACE BEHAVIOR,PRESSURE-OVERCLOSURE=Linear
14500000000,0

*FRICTION
0.15,145000000

*CONTACT PAIR,INTERACTION=SI3,TYPE=SURFACE TO SURFACE,ADJUST=0
slave2,master2
*SURFACE INTERACTION,NAME=SI3
*SURFACE BEHAVIOR,PRESSURE-OVERCLOSURE=Linear
14500000000,0

*FRICTION
0.15,145000000


*TIME POINTS,NAME=T1,GENERATE
0,1,5.0000E-02

*STEP,NLGEOM,INC=10000
*STATIC
0.05,1
*BOUNDARY,AMPLITUDE=graph1,TIME DELAY=0
move,2,2,1
move,3,3,0

*BOUNDARY,AMPLITUDE=graph2,TIME DELAY=0.5
move,1,1,1
move,3,3,0

  *NODE FILE ,TIME POINTS=T1
U,
  *EL FILE,TIME POINTS=T1
S,
*NODE PRINT,NSET=dx,TIME POINTS=T1
RF
*NODE PRINT,NSET=dydz,TIME POINTS=T1
RF
*NODE PRINT,NSET=move,TIME POINTS=T1
RF
*NODE PRINT,NSET=move,TIME POINTS=T1
RF
*CONTACT OUTPUT
CDIS,CSTR 
*END STEP
