**Shells in contact
**Simple example with shell elements
**https://youtu.be/cH_leTeGBuA
**<img src="shellcont.jpg">

*NODE, NSET=Nall
       1,2.500000000000e+02,-1.010000000000e+02,2.000000000000e+02
       2,-5.000000000000e+01,-1.010000000000e+02,2.000000000000e+02
       3,5.000000000000e+01,-1.421085471520e-14,3.000000000000e+02
       4,5.000000000000e+01,-1.421085471520e-14,0.000000000000e+00
       5,2.500000000000e+02,-9.124548000000e+01,2.009607000000e+02
       6,2.500000000000e+02,-8.186583000000e+01,2.038060000000e+02
       7,2.500000000000e+02,-7.322149000000e+01,2.084265000000e+02
       8,2.500000000000e+02,-6.564466000000e+01,2.146447000000e+02
       9,2.500000000000e+02,-5.942652000000e+01,2.222215000000e+02
      10,2.500000000000e+02,-5.480602000000e+01,2.308658000000e+02
      11,2.500000000000e+02,-5.196074000000e+01,2.402455000000e+02
      12,2.500000000000e+02,-5.100000000000e+01,2.500000000000e+02
      13,2.500000000000e+02,-5.196074000000e+01,2.597545000000e+02
      14,2.500000000000e+02,-5.480602000000e+01,2.691342000000e+02
      15,2.500000000000e+02,-5.942652000000e+01,2.777785000000e+02
      16,2.500000000000e+02,-6.564466000000e+01,2.853553000000e+02
      17,2.500000000000e+02,-7.322149000000e+01,2.915735000000e+02
      18,2.500000000000e+02,-8.186583000000e+01,2.961940000000e+02
      19,2.500000000000e+02,-9.124548000000e+01,2.990393000000e+02
      20,2.500000000000e+02,-1.010000000000e+02,3.000000000000e+02
** ... 5868 like lines cut
*ELEMENT, TYPE=S8R, ELSET=Eall
   189,      1,     64,    187,      5,   2046,   2174,   2173,   1985
   190,      5,    187,    188,      6,   2173,   2176,   2175,   1986
   191,      6,    188,    189,      7,   2175,   2178,   2177,   1987
   192,      7,    189,    190,      8,   2177,   2180,   2179,   1988
   193,      8,    190,    191,      9,   2179,   2182,   2181,   1989
   194,      9,    191,    192,     10,   2181,   2184,   2183,   1990
   195,     10,    192,    193,     11,   2183,   2186,   2185,   1991
   196,     11,    193,    194,     12,   2185,   2188,   2187,   1992
   197,     12,    194,    195,     13,   2187,   2190,   2189,   1993
   198,     13,    195,    196,     14,   2189,   2192,   2191,   1994
   199,     14,    196,    197,     15,   2191,   2194,   2193,   1995
   200,     15,    197,    198,     16,   2193,   2196,   2195,   1996
   201,     16,    198,    199,     17,   2195,   2198,   2197,   1997
   202,     17,    199,    200,     18,   2197,   2200,   2199,   1998
   203,     18,    200,    201,     19,   2199,   2202,   2201,   1999
   204,     19,    201,    202,     20,   2201,   2204,   2203,   2000
   205,     20,    202,    203,     21,   2203,   2206,   2205,   2001
   206,     21,    203,    204,     22,   2205,   2208,   2207,   2002
   207,     22,    204,    205,     23,   2207,   2210,   2209,   2003
   208,     23,    205,    206,     24,   2209,   2212,   2211,   2004
** ... 1900 like lines cut
** Names based on slave
*NSET,NSET=slave 
3, 
4, 
96, 
97, 
98, 
99, 
100, 
101, 
102, 
103, 
104, 
105, 
106, 
107, 
108, 
109, 
110, 
111, 
112, 
113, 
** ... 2924 like lines cut
** Names based on S8R
*ELSET,ELSET=S8R 
189, 
190, 
191, 
192, 
193, 
194, 
195, 
196, 
197, 
198, 
199, 
200, 
201, 
202, 
203, 
204, 
205, 
206, 
207, 
208, 
** ... 1900 like lines cut
** Names based on master
*NSET,NSET=master 
1, 
2, 
5, 
6, 
7, 
8, 
9, 
10, 
11, 
12, 
13, 
14, 
15, 
16, 
17, 
18, 
19, 
20, 
21, 
22, 
** ... 2924 like lines cut
** Names based on movedz
*NSET,NSET=movedz 
1, 
5, 
6, 
7, 
8, 
9, 
10, 
11, 
12, 
13, 
14, 
15, 
16, 
17, 
18, 
19, 
20, 
21, 
22, 
23, 
** ... 44 like lines cut
** Names based on fixed
*NSET,NSET=fixed 
4, 
156, 
157, 
158, 
159, 
160, 
161, 
162, 
163, 
164, 
165, 
166, 
167, 
168, 
169, 
170, 
171, 
172, 
173, 
174, 
** ... 44 like lines cut
** Surfaces based on slave
*SURFACE, NAME=slave
1149, SPOS 
1180, SPOS 
2077, SPOS 
2108, SPOS 
1150, SPOS 
1151, SPOS 
1152, SPOS 
1153, SPOS 
1154, SPOS 
1155, SPOS 
1156, SPOS 
1157, SPOS 
1158, SPOS 
1159, SPOS 
1160, SPOS 
1161, SPOS 
1162, SPOS 
1163, SPOS 
1164, SPOS 
1165, SPOS 
** ... 940 like lines cut
** Surfaces based on master
*SURFACE, NAME=master
189, SPOS 
220, SPOS 
1117, SPOS 
1148, SPOS 
190, SPOS 
191, SPOS 
192, SPOS 
193, SPOS 
194, SPOS 
195, SPOS 
196, SPOS 
197, SPOS 
198, SPOS 
199, SPOS 
200, SPOS 
201, SPOS 
202, SPOS 
203, SPOS 
204, SPOS 
205, SPOS 
** ... 940 like lines cut
** Surfaces based on movedz
*SURFACE, NAME=movedz
** Surfaces based on all
*SURFACE, NAME=all
189, SPOS 
220, SPOS 
1117, SPOS 
1148, SPOS 
1149, SPOS 
1180, SPOS 
2077, SPOS 
2108, SPOS 
190, SPOS 
191, SPOS 
192, SPOS 
193, SPOS 
194, SPOS 
195, SPOS 
196, SPOS 
197, SPOS 
198, SPOS 
199, SPOS 
200, SPOS 
201, SPOS 
** ... 1900 like lines cut
** Surfaces based on fixed
*SURFACE, NAME=fixed
** Surfaces based on S8R
*SURFACE, NAME=S8R

*MATERIAL,NAME=steel
*ELASTIC
2.0000E+05,0.28


*DENSITY
7.8500E-09
*EXPANSION
1.3000E-05


*SHELL SECTION,MATERIAL=steel,ELSET=Eall,,OFFSET=0.0000E+00
1.0000E+00

*BOUNDARY
fixed,1,1,0
fixed,2,2,0
fixed,3,3,0

*BOUNDARY
movedz,1,1,0
movedz,2,2,15
movedz,3,3,0

*CONTACT PAIR,INTERACTION=SI1,TYPE=SURFACE TO SURFACE,ADJUST=0
slave,master
*SURFACE INTERACTION,NAME=SI1
*SURFACE BEHAVIOR,PRESSURE-OVERCLOSURE=Linear
10000000,0


*TIME POINTS,NAME=T1,GENERATE
0,1,1.0000E-01

*STEP,NLGEOM,INC=10000
*STATIC
0.1,1
  *NODE FILE ,TIME POINTS=T1
U,
  *EL FILE,TIME POINTS=T1
S,
*NODE PRINT,NSET=fixed,TIME POINTS=T1
RF
*NODE PRINT,NSET=movedz,TIME POINTS=T1
RF
*CONTACT OUTPUT
CDIS,CSTR 
*END STEP
