**Body Element C3D20 - linear
**Linear problem

*INCLUDE, INPUT=all.msh
*INCLUDE, INPUT=fix_x.nam
*INCLUDE, INPUT=fix_y.nam
*INCLUDE, INPUT=fix_z.nam
*INCLUDE, INPUT=load1.nam 
*INCLUDE, INPUT=load2.nam 

*MATERIAL,NAME=Steel
*ELASTIC
2e11,0.30



*SOLID SECTION,MATERIAL=Steel,ELSET=Eall


*BOUNDARY
Nfix_x,1,1,0
Nfix_y,2,2,0
Nfix_z,3,3,0

*STEP
*STATIC

**    Load =4000 N is applied to 21 nodes
**    value=4000/21=190.5
*CLOAD,
Nload1,3,-190.5


*NODE FILE 
U,
*EL FILE
S,

*END STEP
