**S8R shell, plastic
**nonlinear problem

*NODE, NSET=Nall
       1,-5.000000000000e-02,-5.000000000000e-02,0.000000000000e+00
       2,-5.000000000000e-02,5.000000000000e-02,0.000000000000e+00
       3,5.000000000000e-02,-5.000000000000e-02,0.000000000000e+00
       4,5.000000000000e-02,5.000000000000e-02,0.000000000000e+00
       5,-5.000000000000e-02,-4.333333000000e-02,0.000000000000e+00
       6,-5.000000000000e-02,-3.666667000000e-02,0.000000000000e+00
       7,-5.000000000000e-02,-3.000000000000e-02,0.000000000000e+00
       8,-5.000000000000e-02,-2.333333000000e-02,0.000000000000e+00
       9,-5.000000000000e-02,-1.666667000000e-02,0.000000000000e+00
      10,-5.000000000000e-02,-1.000000000000e-02,0.000000000000e+00
      11,-5.000000000000e-02,-3.333333000000e-03,0.000000000000e+00
      12,-5.000000000000e-02,3.333333000000e-03,0.000000000000e+00
      13,-5.000000000000e-02,1.000000000000e-02,0.000000000000e+00
      14,-5.000000000000e-02,1.666667000000e-02,0.000000000000e+00
      15,-5.000000000000e-02,2.333333000000e-02,0.000000000000e+00
      16,-5.000000000000e-02,3.000000000000e-02,0.000000000000e+00
      17,-5.000000000000e-02,3.666667000000e-02,0.000000000000e+00
      18,-5.000000000000e-02,4.333333000000e-02,0.000000000000e+00
      19,-4.333333000000e-02,-5.000000000000e-02,0.000000000000e+00
      20,-3.666667000000e-02,-5.000000000000e-02,0.000000000000e+00
** ... 716 like lines cut
*ELEMENT, TYPE=S8R, ELSET=Eall
    61,      2,     47,     61,     18,    302,    318,    317,    271
    62,     47,     48,     62,     61,    303,    320,    319,    318
    63,     48,     49,     63,     62,    304,    322,    321,    320
    64,     49,     50,     64,     63,    305,    324,    323,    322
    65,     50,     51,     65,     64,    306,    326,    325,    324
    66,     51,     52,     66,     65,    307,    328,    327,    326
    67,     52,     53,     67,     66,    308,    330,    329,    328
    68,     53,     54,     68,     67,    309,    332,    331,    330
    69,     54,     55,     69,     68,    310,    334,    333,    332
    70,     55,     56,     70,     69,    311,    336,    335,    334
    71,     56,     57,     71,     70,    312,    338,    337,    336
    72,     57,     58,     72,     71,    313,    340,    339,    338
    73,     58,     59,     73,     72,    314,    342,    341,    340
    74,     59,     60,     74,     73,    315,    344,    343,    342
    75,     60,      4,     46,     74,    316,    301,    345,    344
    76,     18,     61,     75,     17,    317,    347,    346,    270
    77,     61,     62,     76,     75,    319,    349,    348,    347
    78,     62,     63,     77,     76,    321,    351,    350,    349
    79,     63,     64,     78,     77,    323,    353,    352,    351
    80,     64,     65,     79,     78,    325,    355,    354,    353
** ... 205 like lines cut
** Names based on load1
*NSET,NSET=Nload1 
3, 
4, 
33, 
34, 
35, 
36, 
37, 
38, 
39, 
40, 
41, 
42, 
43, 
44, 
45, 
46, 
287, 
288, 
289, 
290, 
** ... 11 like lines cut
** Names based on load2
*NSET,NSET=Nload2 
3, 
** Names based on fixedpoint
*NSET,NSET=Nfixedpoint 
1, 
** Names based on fixedline
*NSET,NSET=Nfixedline 
1, 
2, 
5, 
6, 
7, 
8, 
9, 
10, 
11, 
12, 
13, 
14, 
15, 
16, 
17, 
18, 
257, 
258, 
259, 
260, 
** ... 11 like lines cut


*MATERIAL,NAME=Steel
*ELASTIC
2e11,0.30
*PLASTIC,HARDENING=ISOTROPIC
311753332,0.00000,273.0
332292332,0.00097,273.0
352831331,0.00243,273.0
373370331,0.00456,273.0
393909330,0.00763,273.0
414448330,0.01196,273.0
434987329,0.01795,273.0
455526329,0.02612,273.0
476065329,0.03712,273.0
496604328,0.05173,273.0
517143328,0.07092,273.0
537682327,0.09583,273.0
558221327,0.12786,273.0
578760326,0.16868,273.0
599299326,0.22023,273.0
619838325,0.28483,273.0
640377325,0.36518,273.0
660916325,0.46442,273.0
681455324,0.58619,273.0
701994324,0.73469,273.0
722533323,0.91473,273.0


*SHELL SECTION,ELSET=Eall,COMPOSITE
0.0006,,STEEL
0.0006,,STEEL
0.0006,,STEEL
0.0006,,STEEL
0.0006,,STEEL
0.0006,,STEEL
0.0006,,STEEL
0.0006,,STEEL
0.0006,,STEEL
0.0006,,STEEL


*BOUNDARY
Nfixedline,3,3,0
Nfixedline,1,1,0
Nfixedline,5,5,0
Nfixedpoint,2,2,0

*TIME POINTS,NAME=T20,GENERATE
0.,1.,0.05
*STEP
*STATIC
.00001,1.

*AMPLITUDE,NAME=LoadingAndUnloading
0.,0,0.5,1,1,0

**    Load =4000 N is applied to 31 nodes
**    value=4000/31=129.03
*CLOAD,AMPLITUDE=LoadingAndUnloading
Nload1,3,-129.03


*NODE FILE,TIME POINTS=T20 
U,
*EL FILE,TIME POINTS=T20
S,E,PE

*END STEP
