**J-clamp
**Simple contact problem
**https://youtu.be/VIbgIJBm2gw
**<img src="clamp.jpg">

*NODE, NSET=Nall
       1,0.000000000000e+00,0.000000000000e+00,1.000000000000e+00
       2,0.000000000000e+00,0.000000000000e+00,1.200000000000e+01
       3,1.000000000000e+00,0.000000000000e+00,0.000000000000e+00
       4,2.000000000000e+00,0.000000000000e+00,1.200000000000e+01
       5,8.000000000000e+00,0.000000000000e+00,0.000000000000e+00
       6,2.000000000000e+00,0.000000000000e+00,2.500000000000e+00
       7,8.000000000000e+00,0.000000000000e+00,2.000000000000e+00
       8,2.500000000000e+00,0.000000000000e+00,2.000000000000e+00
       9,0.000000000000e+00,0.000000000000e+00,1.250000000000e+00
      10,0.000000000000e+00,0.000000000000e+00,1.500000000000e+00
      11,0.000000000000e+00,0.000000000000e+00,1.750000000000e+00
      12,0.000000000000e+00,0.000000000000e+00,2.000000000000e+00
      13,0.000000000000e+00,0.000000000000e+00,2.250000000000e+00
      14,0.000000000000e+00,0.000000000000e+00,2.500000000000e+00
      15,0.000000000000e+00,0.000000000000e+00,2.750000000000e+00
      16,0.000000000000e+00,0.000000000000e+00,3.000000000000e+00
      17,0.000000000000e+00,0.000000000000e+00,3.250000000000e+00
      18,0.000000000000e+00,0.000000000000e+00,3.500000000000e+00
      19,0.000000000000e+00,0.000000000000e+00,3.750000000000e+00
      20,0.000000000000e+00,0.000000000000e+00,4.000000000000e+00
** ... 13902 like lines cut
*ELEMENT, TYPE=C3D20, ELSET=Eall
  1915,     2,    58,   160,    51,   717,   825,  1566,   817,  4071,  6079,
        6078,  4055,  5766,  9047,  9046,  5746,  4058,  5781,  9048,  5743
  1916,   717,   825,  1566,   817,   716,   818,  1022,   732,  5766,  9047,
        9046,  5746,  3904,  4443,  4444,  3853,  4059,  5767,  9049,  5745
  1917,    51,   160,   161,    50,   817,  1566,  1567,   816,  6078,  6081,
        6080,  4054,  9046,  9051,  9050,  5744,  5743,  9048,  9052,  5740
  1918,   817,  1566,  1567,   816,   732,  1022,  1023,   733,  9046,  9051,
        9050,  5744,  4444,  4445,  4446,  3854,  5745,  9049,  9053,  5742
  1919,    50,   161,   162,    49,   816,  1567,  1568,   815,  6080,  6083,
        6082,  4053,  9050,  9055,  9054,  5741,  5740,  9052,  9056,  5737
  1920,   816,  1567,  1568,   815,   733,  1023,  1024,   734,  9050,  9055,
        9054,  5741,  4446,  4447,  4448,  3855,  5742,  9053,  9057,  5739
  1921,    49,   162,   163,    48,   815,  1568,  1569,   814,  6082,  6085,
        6084,  4052,  9054,  9059,  9058,  5738,  5737,  9056,  9060,  5734
  1922,   815,  1568,  1569,   814,   734,  1024,  1025,   735,  9054,  9059,
        9058,  5738,  4448,  4449,  4450,  3856,  5739,  9057,  9061,  5736
  1923,    48,   163,   164,    47,   814,  1569,  1570,   813,  6084,  6087,
        6086,  4051,  9058,  9063,  9062,  5735,  5734,  9060,  9064,  5731
  1924,   814,  1569,  1570,   813,   735,  1025,  1026,   736,  9058,  9063,
        9062,  5735,  4450,  4451,  4452,  3857,  5736,  9061,  9065,  5733
** ... 164 like lines cut
*ELEMENT, TYPE=C3D15, ELSET=Eall
  2007,   534,   665,   593,  1940,  2071,  1999,  6172,  6171,  6170,
        9232,  9231,  9230,  9233,  9235,  9234
  2008,  1940,  2071,  1999,  1068,  1070,  1069,  9232,  9231,  9230,
        4535,  4536,  4537,  9236,  9238,  9237
*ELEMENT, TYPE=C3D20, ELSET=Eall
  2009,   593,   665,   631,   630,  1999,  2071,  2037,  2036,  6171,  6175,
        6174,  6173,  9231,  9241,  9240,  9239,  9234,  9235,  9243,  9242
  2010,  1999,  2071,  2037,  2036,  1069,  1070,  1072,  1071,  9231,  9241,
        9240,  9239,  4536,  4538,  4539,  4540,  9237,  9238,  9245,  9244
*ELEMENT, TYPE=C3D15, ELSET=Eall
  2011,   663,   686,   558,  2069,  2092,  1964,  6178,  6177,  6176,
        9248,  9247,  9246,  9249,  9251,  9250
  2012,  2069,  2092,  1964,  1073,  1075,  1074,  9248,  9247,  9246,
        4541,  4542,  4543,  9252,  9254,  9253
*ELEMENT, TYPE=C3D20, ELSET=Eall
  2013,    57,   208,   209,     3,   726,  1614,  1615,   707,  6181,  6180,
        6179,  4066,  9257,  9256,  9255,  5748,  5747,  9259,  9258,  4067
  2014,   726,  1614,  1615,   707,   725,  1077,  1076,   706,  9257,  9256,
        9255,  5748,  4544,  4545,  4546,  3903,  5749,  9261,  9260,  4068
  2015,     3,   209,   210,    65,   707,  1615,  1616,  1021,  6179,  6183,
        6182,  4079,  9255,  9263,  9262,  5869,  4067,  9258,  9264,  5866
  2016,   707,  1615,  1616,  1021,   706,  1076,  1078,   994,  9255,  9263,
        9262,  5869,  4546,  4547,  4548,  3939,  4068,  9260,  9265,  5868
  2017,    65,   210,   211,    66,  1021,  1616,  1617,  1020,  6182,  6185,
        6184,  4080,  9262,  9267,  9266,  5867,  5866,  9264,  9268,  5863
  2018,  1021,  1616,  1617,  1020,   994,  1078,  1079,   993,  9262,  9267,
        9266,  5867,  4548,  4549,  4550,  3938,  5868,  9265,  9269,  5865
  2019,    66,   211,   212,    67,  1020,  1617,  1618,  1019,  6184,  6187,
        6186,  4081,  9266,  9271,  9270,  5864,  5863,  9268,  9272,  5860
  2020,  1020,  1617,  1618,  1019,   993,  1079,  1080,   992,  9266,  9271,
        9270,  5864,  4550,  4551,  4552,  3937,  5865,  9269,  9273,  5862
  2021,    67,   212,   213,    68,  1019,  1618,  1619,  1018,  6186,  6189,
        6188,  4082,  9270,  9275,  9274,  5861,  5860,  9272,  9276,  5857
  2022,  1019,  1618,  1619,  1018,   992,  1080,  1081,   991,  9270,  9275,
        9274,  5861,  4552,  4553,  4554,  3936,  5862,  9273,  9277,  5859
** ... 92 like lines cut
*ELEMENT, TYPE=C3D15, ELSET=Eall
  2069,     5,    91,   236,   705,   995,  1642,  4106,  6234,  6236,
        5789,  9366,  9370,  4107,  5788,  9368
  2070,   705,   995,  1642,   704,   968,  1104,  5789,  9366,  9370,
        3912,  4600,  4601,  4108,  5790,  9369
*ELEMENT, TYPE=C3D20, ELSET=Eall
  2071,   129,   238,   237,   130,   967,  1644,  1643,   966,  6239,  6238,
        6237,  4150,  9373,  9372,  9371,  6001,  6000,  9375,  9374,  5997
  2072,   967,  1644,  1643,   966,   954,  1106,  1105,   955,  9373,  9372,
        9371,  6001,  4602,  4603,  4604,  3979,  6002,  9377,  9376,  5999
  2073,   130,   237,   239,   131,   966,  1643,  1645,   965,  6237,  6241,
        6240,  4151,  9371,  9379,  9378,  5998,  5997,  9374,  9380,  5994
  2074,   966,  1643,  1645,   965,   955,  1105,  1107,   956,  9371,  9379,
        9378,  5998,  4604,  4605,  4606,  3980,  5999,  9376,  9381,  5996
  2075,   131,   239,   240,   132,   965,  1645,  1646,   964,  6240,  6243,
        6242,  4152,  9378,  9383,  9382,  5995,  5994,  9380,  9384,  5991
  2076,   965,  1645,  1646,   964,   956,  1107,  1108,   957,  9378,  9383,
        9382,  5995,  4606,  4607,  4608,  3981,  5996,  9381,  9385,  5993
  2077,   132,   240,   241,   133,   964,  1646,  1647,   963,  6242,  6245,
        6244,  4153,  9382,  9387,  9386,  5992,  5991,  9384,  9388,  5988
  2078,   964,  1646,  1647,   963,   957,  1108,  1109,   958,  9382,  9387,
        9386,  5992,  4608,  4609,  4610,  3982,  5993,  9385,  9389,  5990
  2079,   133,   241,   242,   134,   963,  1647,  1648,   962,  6244,  6247,
        6246,  4154,  9386,  9391,  9390,  5989,  5988,  9388,  9392,  5985
  2080,   963,  1647,  1648,   962,   958,  1109,  1110,   959,  9386,  9391,
        9390,  5989,  4610,  4611,  4612,  3983,  5990,  9389,  9393,  5987
** ... 1588 like lines cut
*ELEMENT, TYPE=C3D15, ELSET=Eall
  2875,   635,   634,   695,  2041,  2040,  2101,  7043,  7047,  7046,
       10979, 10987, 10986, 10980, 10976, 10988
  2876,  2041,  2040,  2101,  1506,  1505,  1508, 10979, 10987, 10986,
        5407,  5411,  5412, 10981, 10977, 10989
*ELEMENT, TYPE=C3D20, ELSET=Eall
  2877,   503,   638,   637,   502,  1909,  2044,  2043,  1908,  7050,  7049,
        7048,  6775, 10992, 10991, 10990, 10447, 10450, 10994, 10993, 10449
  2878,  1909,  2044,  2043,  1908,  1375,  1510,  1509,  1374, 10992, 10991,
       10990, 10447,  5413,  5414,  5415,  5140, 10452, 10996, 10995, 10451
  2879,   510,   640,   639,   511,  1916,  2046,  2045,  1917,  7053,  7052,
        7051,  6790, 10999, 10998, 10997, 10478, 10475, 11001, 11000, 10479
  2880,  1916,  2046,  2045,  1917,  1381,  1512,  1511,  1382, 10999, 10998,
       10997, 10478,  5416,  5417,  5418,  5154, 10476, 11003, 11002, 10480
  2881,   504,   641,   638,   503,  1910,  2047,  2044,  1909,  7055,  7054,
        7050,  6783, 11005, 11004, 10992, 10465, 10456, 10582, 10994, 10450
  2882,  1910,  2047,  2044,  1909,  1376,  1409,  1510,  1375, 11005, 11004,
       10992, 10465,  5419,  5420,  5413,  5148, 10458, 10586, 10996, 10452
  2883,   508,   642,   640,   510,  1914,  2048,  2046,  1916,  7057,  7056,
        7053,  6788, 11007, 11006, 10999, 10474, 10469, 11008, 11001, 10475
  2884,  1914,  2048,  2046,  1916,  1379,  1513,  1512,  1381, 11007, 11006,
       10999, 10474,  5421,  5422,  5416,  5152, 10471, 11009, 11003, 10476
  2885,   512,   644,   643,   513,  1918,  2050,  2049,  1919,  7060,  7059,
        7058,  6794, 11012, 11011, 11010, 10486, 10483, 11014, 11013, 10487
  2886,  1918,  2050,  2049,  1919,  1383,  1515,  1514,  1384, 11012, 11011,
       11010, 10486,  5423,  5424,  5425,  5158, 10484, 11016, 11015, 10488
** ... 168 like lines cut
*ELEMENT, TYPE=C3D15, ELSET=Eall
  2971,   633,   632,   699,  2039,  2038,  2105,  7039,  7147,  7146,
       10971, 11183, 11182, 10972, 10968, 11184
  2972,  2039,  2038,  2105,  1504,  1503,  1556, 10971, 11183, 11182,
        5403,  5511,  5512, 10973, 10969, 11185
*ELEMENT, TYPE=C3D20, ELSET=Eall
  2973,   537,   687,   662,   540,  1943,  2093,  2068,  1946,  7149,  7148,
        7096,  6849, 11187, 11186, 11086, 10599, 10590, 11188, 11088, 10600
  2974,  1943,  2093,  2068,  1946,  1410,  1557,  1534,  1413, 11187, 11186,
       11086, 10599,  5513,  5514,  5459,  5213, 10592, 11189, 11090, 10601
  2975,   699,   632,   698,   701,  2105,  2038,  2104,  2107,  7147,  7152,
        7151,  7150, 11183, 11192, 11191, 11190, 11184, 10968, 11194, 11193
  2976,  2105,  2038,  2104,  2107,  1556,  1503,  1559,  1558, 11183, 11192,
       11191, 11190,  5511,  5515,  5516,  5517, 11185, 10969, 11196, 11195
  2977,   564,   621,   620,   565,  1970,  2027,  2026,  1971,  7154,  7016,
        7153,  6898, 11198, 10928, 11197, 10696, 10693, 10929, 10925, 10697
  2978,  1970,  2027,  2026,  1971,  1436,  1494,  1493,  1437, 11198, 10928,
       11197, 10696,  5518,  5380,  5519,  5262, 10694, 10930, 10926, 10698
  2979,   567,   617,   616,   568,  1973,  2023,  2022,  1974,  7156,  7008,
        7155,  6904, 11200, 10912, 11199, 10708, 10705, 10913, 10909, 10709
  2980,  1973,  2023,  2022,  1974,  1439,  1490,  1489,  1440, 11200, 10912,
       11199, 10708,  5520,  5372,  5521,  5268, 10706, 10914, 10910, 10710
  2981,   569,   615,   614,   570,  1975,  2021,  2020,  1976,  7158,  7004,
        7157,  6908, 11202, 10904, 11201, 10716, 10713, 10905, 10901, 10717
  2982,  1975,  2021,  2020,  1976,  1441,  1488,  1487,  1442, 11202, 10904,
       11201, 10716,  5522,  5368,  5523,  5272, 10714, 10906, 10902, 10718
** ... 64 like lines cut
*ELEMENT, TYPE=C3D15, ELSET=Eall
  3015,   618,   566,   619,  2024,  1972,  2025,  7191,  7190,  7012,
       11245, 11244, 10920, 10917, 10701, 10921
  3016,  2024,  1972,  2025,  1491,  1438,  1492, 11245, 11244, 10920,
        5555,  5556,  5376, 10918, 10702, 10922
*ELEMENT, TYPE=C3D20, ELSET=Eall
  3017,   591,   689,   461,   592,  1997,  2095,  1867,  1998,  7182,  7192,
        6963,  6954, 11230, 11246, 10823, 10808, 10802, 11228, 10284, 10806
  3018,  1997,  2095,  1867,  1998,  1463,  1561,  1333,  1464, 11230, 11246,
       10823, 10808,  5547,  5557,  5328,  5319, 10803, 11229, 10286, 10807
  3019,   505,   690,   641,   504,  1911,  2096,  2047,  1910,  7183,  6841,
        7055,  6778, 11231, 10577, 11005, 10454, 10457, 10581, 10582, 10456
  3020,  1911,  2096,  2047,  1910,  1377,  1408,  1409,  1376, 11231, 10577,
       11005, 10454,  5550,  5205,  5419,  5143, 10459, 10585, 10586, 10458
  3021,   509,   692,   642,   508,  1915,  2098,  2048,  1914,  7186,  7193,
        7057,  6785, 11236, 11247, 11007, 10467, 10470, 11238, 11008, 10469
  3022,  1915,  2098,  2048,  1914,  1380,  1563,  1513,  1379, 11236, 11247,
       11007, 10467,  5552,  5558,  5421,  5150, 10472, 11239, 11009, 10471
  3023,   465,   599,   603,   466,  1871,  2005,  2009,  1872,  6973,  7172,
        6980,  6703, 10841, 11216, 10854, 10303, 10300, 10844, 10856, 10304
  3024,  1871,  2005,  2009,  1872,  1337,  1472,  1476,  1338, 10841, 11216,
       10854, 10303,  5340,  5536,  5343,  5067, 10301, 10846, 10858, 10305
  3025,   596,   636,   691,   595,  2002,  2042,  2097,  2001,  7195,  7194,
        7185,  6961, 11249, 11248, 11233, 10817, 10820, 10984, 11234, 10819
  3026,  2002,  2042,  2097,  2001,  1467,  1507,  1562,  1466, 11249, 11248,
       11233, 10817,  5559,  5560,  5548,  5326, 10822, 10985, 11235, 10821
** ... 96 like lines cut
*ELEMENT, TYPE=C3D15, ELSET=Eall
  3075,   206,    54,   358,  1612,   729,  1764,  7214,  7213,  6483,
       11270, 11269,  9863,  9864,  5756,  9867
  3076,  1612,   729,  1764,  1228,   722,  1231, 11270, 11269,  9863,
        5578,  5579,  4845,  9868,  5758,  9871
*ELEMENT, TYPE=C3D20, ELSET=Eall
  3077,   638,   641,   694,   664,  2044,  2047,  2100,  2070,  7054,  6842,
        7202,  7205, 11004, 10578, 11256, 11259, 10994, 10582, 10579, 11099
  3078,  2044,  2047,  2100,  2070,  1510,  1409,  1406,  1535, 11004, 10578,
       11256, 11259,  5420,  5204,  5566,  5571, 10996, 10586, 10583, 11100
  3079,   668,   684,   637,   638,  2074,  2090,  2043,  2044,  7216,  7215,
        7049,  7206, 11272, 11271, 10991, 11260, 11116, 11180, 10993, 10994
  3080,  2074,  2090,  2043,  2044,  1539,  1555,  1509,  1510, 11272, 11271,
       10991, 11260,  5580,  5581,  5414,  5570, 11117, 11181, 10995, 10996
*ELEMENT, TYPE=C3D15, ELSET=Eall
  3081,   535,   391,   536,  1941,  1797,  1942,  6838,  7217,  7090,
       10572, 11273, 11074, 10573, 10001, 11078
  3082,  1941,  1797,  1942,  1405,  1263,  1530, 10572, 11273, 11074,
        5201,  5582,  5458, 10574, 10003, 11081
*ELEMENT, TYPE=C3D20, ELSET=Eall
  3083,   642,   682,   681,   640,  2048,  2088,  2087,  2046,  7219,  7141,
        7218,  7056, 11275, 11171, 11274, 11006, 11008, 11172, 11168, 11001
  3084,  2048,  2088,  2087,  2046,  1513,  1553,  1552,  1512, 11275, 11171,
       11274, 11006,  5583,  5505,  5584,  5422, 11009, 11173, 11169, 11003
  3085,   644,   679,   678,   643,  2050,  2085,  2084,  2049,  7221,  7135,
        7220,  7059, 11277, 11159, 11276, 11011, 11014, 11160, 11156, 11013
  3086,  2050,  2085,  2084,  2049,  1515,  1550,  1549,  1514, 11277, 11159,
       11276, 11011,  5585,  5499,  5586,  5424, 11016, 11161, 11157, 11015
  3087,   647,   675,   674,   648,  2053,  2081,  2080,  2054,  7223,  7127,
        7222,  7068, 11279, 11143, 11278, 11030, 11027, 11144, 11140, 11031
  3088,  2053,  2081,  2080,  2054,  1518,  1546,  1545,  1519, 11279, 11143,
       11278, 11030,  5587,  5491,  5588,  5432, 11028, 11145, 11141, 11032
  3089,   649,   673,   672,   650,  2055,  2079,  2078,  2056,  7225,  7123,
        7224,  7072, 11281, 11135, 11280, 11038, 11035, 11136, 11132, 11039
  3090,  2055,  2079,  2078,  2056,  1520,  1544,  1543,  1521, 11281, 11135,
       11280, 11038,  5589,  5487,  5590,  5436, 11036, 11137, 11133, 11040
  3091,   651,   671,   670,   652,  2057,  2077,  2076,  2058,  7227,  7119,
        7226,  7076, 11283, 11127, 11282, 11046, 11043, 11128, 11124, 11047
  3092,  2057,  2077,  2076,  2058,  1522,  1542,  1541,  1523, 11283, 11127,
       11282, 11046,  5591,  5483,  5592,  5440, 11044, 11129, 11125, 11048
** ... 88 like lines cut
*ELEMENT, TYPE=C3D15, ELSET=Eall
  3137,   266,   269,   137,  1672,  1675,   910,  6689,  6300,  6295,
       10277,  9496,  9487,  9490,  9498,  6009
  3138,  1672,  1675,   910,  1134,  1137,   907, 10277,  9496,  9487,
        5053,  4663,  4662,  9492,  9500,  6007
  3139,   268,   271,   136,  1674,  1677,   911,  6691,  6303,  6298,
       10279,  9503,  9494,  9497,  9505,  6012
  3140,  1674,  1677,   911,  1136,  1139,   906, 10279,  9503,  9494,
        5055,  4666,  4665,  9499,  9507,  6010
*ELEMENT, TYPE=C3D20, ELSET=Eall
  3141,   699,   701,   696,   700,  2105,  2107,  2102,  2106,  7150,  7241,
        7245,  7212, 11190, 11297, 11301, 11268, 11184, 11193, 11264, 11112
  3142,  2105,  2107,  2102,  2106,  1556,  1558,  1565,  1538, 11190, 11297,
       11301, 11268,  5517,  5606,  5610,  5577, 11185, 11195, 11265, 11113
  3143,   697,   703,   700,   696,  2103,  2109,  2106,  2102,  6971,  7110,
        7245,  7208, 10835, 11110, 11301, 11262, 10837, 10838, 11112, 11264
  3144,  2103,  2109,  2106,  2102,  1470,  1471,  1538,  1565, 10835, 11110,
       11301, 11262,  5336,  5475,  5610,  5573, 10839, 10840, 11113, 11265
*ELEMENT, TYPE=C3D15, ELSET=Eall
  3145,    57,    56,   208,   726,   727,  1614,  4065,  7246,  6181,
        5751, 11302,  9257,  5747,  5750,  9259
  3146,   726,   727,  1614,   725,   724,  1077,  5751, 11302,  9257,
        3902,  5611,  4544,  5749,  5752,  9261
*ELEMENT, TYPE=C3D20, ELSET=Eall
  3147,   208,    56,   207,   359,  1614,   727,  1613,  1765,  7246,  7247,
        6481,  6687, 11302, 11303,  9861, 10275,  9259,  5750,  9865,  9866
  3148,  1614,   727,  1613,  1765,  1077,   724,  1229,  1230, 11302, 11303,
        9861, 10275,  5611,  5612,  4847,  5051,  9261,  5752,  9869,  9870
*ELEMENT, TYPE=C3D15, ELSET=Eall
  3149,    54,   206,    55,   729,  1612,   728,  7214,  7248,  4063,
       11270, 11304,  5757,  5756,  9864,  5753
  3150,   729,  1612,   728,   722,  1228,   723, 11270, 11304,  5757,
        5578,  5613,  3900,  5758,  9868,  5755
*ELEMENT, TYPE=C3D20, ELSET=Eall
  3151,    55,   206,   207,    56,   728,  1612,  1613,   727,  7248,  6480,
        7247,  4064, 11304,  9860, 11303,  5754,  5753,  9864,  9865,  5750
  3152,   728,  1612,  1613,   727,   723,  1228,  1229,   724, 11304,  9860,
       11303,  5754,  5613,  4848,  5612,  3901,  5755,  9868,  9869,  5752
*ELEMENT, TYPE=C3D15, ELSET=Eall
  3153,   593,   598,   418,  1999,  2004,  1824,  7199,  6968,  6956,
       11253, 10830, 10810,  9234, 10831, 10105
  3154,  1999,  2004,  1824,  1069,  1469,  1290, 11253, 10830, 10810,
        5565,  5332,  5321,  9237, 10832, 10106
  3155,   563,   622,   562,  1969,  2028,  1968,  7101,  7198,  6893,
       11095, 11252, 10685, 10688, 10933, 10687
  3156,  1969,  2028,  1968,  1435,  1495,  1434, 11095, 11252, 10685,
        5467,  5563,  5258, 10690, 10934, 10689
  3157,   501,   596,   458,  1907,  2002,  1864,  7249,  6962,  7244,
       11305, 10818, 11300, 10444, 10820, 10265
  3158,  1907,  2002,  1864,  1373,  1467,  1330, 11305, 10818, 11300,
        5614,  5325,  5609, 10445, 10822, 10267
*ELEMENT, TYPE=C3D20, ELSET=Eall
  3159,   500,   636,   596,   501,  1906,  2042,  2002,  1907,  7044,  7195,
        7249,  6773, 10982, 11249, 11305, 10443, 10440, 10984, 10820, 10444
  3160,  1906,  2042,  2002,  1907,  1372,  1507,  1467,  1373, 10982, 11249,
       11305, 10443,  5410,  5559,  5614,  5137, 10441, 10985, 10822, 10445
  3161,   532,   628,   627,   531,  1938,  2034,  2033,  1937,  7250,  7030,
        7098,  6832, 11306, 10956, 11092, 10560, 10563, 10957, 10953, 10562
  3162,  1938,  2034,  2033,  1937,  1403,  1501,  1500,  1402, 11306, 10956,
       11092, 10560,  5615,  5394,  5462,  5197, 10565, 10958, 10954, 10564
*ELEMENT, TYPE=C3D15, ELSET=Eall
  3163,   557,   684,   668,  1963,  2090,  2074,  7144,  7216,  7113,
       11178, 11272, 11115, 10668, 11180, 11116
  3164,  1963,  2090,  2074,  1430,  1555,  1539, 11178, 11272, 11115,
        5510,  5580,  5477, 10669, 11181, 11117
*ELEMENT, TYPE=C3D20, ELSET=Eall
  3165,   532,   598,   629,   628,  1938,  2004,  2035,  2034,  6967,  7200,
        7032,  7250, 10829, 11254, 10960, 11306, 10563, 10831, 10961, 10957
  3166,  1938,  2004,  2035,  2034,  1403,  1469,  1502,  1501, 10829, 11254,
       10960, 11306,  5333,  5564,  5396,  5615, 10565, 10832, 10962, 10958
  3167,   561,   624,   623,   597,  1967,  2030,  2029,  2003,  7251,  7022,
        7102,  6966, 11307, 10940, 11096, 10826, 10682, 10941, 10937, 10827
  3168,  1967,  2030,  2029,  2003,  1433,  1497,  1496,  1468, 11307, 10940,
       11096, 10826,  5616,  5386,  5466,  5330, 10683, 10942, 10938, 10828
  3169,   561,   560,   625,   624,  1967,  1966,  2031,  2030,  6891,  7203,
        7024,  7251, 10681, 11257, 10944, 11307, 10682, 10678, 10945, 10941
  3170,  1967,  1966,  2031,  2030,  1433,  1432,  1498,  1497, 10681, 11257,
       10944, 11307,  5255,  5568,  5388,  5616, 10683, 10679, 10946, 10942
  3171,    54,    53,   205,   357,   729,   730,  1611,  1763,  4062,  6168,
        6475,  7243,  5760,  9226,  9849, 11299,  5756,  5759,  9228,  9851
  3172,   729,   730,  1611,  1763,   722,   721,  1067,  1225,  5760,  9226,
        9849, 11299,  3899,  4534,  4841,  5607,  5758,  5761,  9229,  9852
  3173,   538,   658,   687,   537,  1944,  2064,  2093,  1943,  7099,  7232,
        7149,  6844, 11093, 11288, 11187, 10588, 10591, 11072, 11188, 10590
  3174,  1944,  2064,  2093,  1943,  1411,  1529,  1557,  1410, 11093, 11288,
       11187, 10588,  5464,  5597,  5513,  5209, 10593, 11073, 11189, 10592
*ELEMENT, TYPE=C3D15, ELSET=Eall
  3175,   659,   698,   665,  2065,  2104,  2071,  7236,  7210,  7105,
       11292, 11266, 11101, 11079, 11194,  9235
  3176,  2065,  2104,  2071,  1531,  1559,  1070, 11292, 11266, 11101,
        5602,  5575,  5470, 11082, 11196,  9238
*ELEMENT, TYPE=C3D20, ELSET=Eall
  4465,  2110,  2123,  2214,  2118,  2390,  2442,  3128,  2862,  4211,  8442,
        8441,  4205,  7313, 11309, 11308,  7252,  4187,  7312, 11310,  7253
  4466,  2390,  2442,  3128,  2862,  2391,  2443,  3129,  2867,  7313, 11309,
       11308,  7252,  7315, 11312, 11311,  7263,  4188,  7314, 11313,  7264
  4467,  2391,  2443,  3129,  2867,  2392,  2444,  3130,  2872,  7315, 11312,
       11311,  7263,  7317, 11315, 11314,  7274,  4189,  7316, 11316,  7275
  4468,  2392,  2444,  3130,  2872,  2393,  2445,  3131,  2877,  7317, 11315,
       11314,  7274,  7319, 11318, 11317,  7285,  4190,  7318, 11319,  7286
  4469,  2393,  2445,  3131,  2877,  2394,  2446,  3132,  2882,  7319, 11318,
       11317,  7285,  7321, 11321, 11320,  7296,  4191,  7320, 11322,  7297
  4470,  2394,  2446,  3132,  2882,  2389,  2407,  2983,  2857,  7321, 11321,
       11320,  7296,  4253,  7702,  7703,  4193,  4192,  7322, 11323,  7307
  4471,  2118,  2214,  2215,  2119,  2862,  3128,  3133,  2863,  8441,  8444,
        8443,  4206, 11308, 11325, 11324,  7254,  7253, 11310, 11326,  7255
  4472,  2862,  3128,  3133,  2863,  2867,  3129,  3134,  2868, 11308, 11325,
       11324,  7254, 11311, 11328, 11327,  7265,  7264, 11313, 11329,  7266
  4473,  2867,  3129,  3134,  2868,  2872,  3130,  3135,  2873, 11311, 11328,
       11327,  7265, 11314, 11331, 11330,  7276,  7275, 11316, 11332,  7277
  4474,  2872,  3130,  3135,  2873,  2877,  3131,  3136,  2878, 11314, 11331,
       11330,  7276, 11317, 11334, 11333,  7287,  7286, 11319, 11335,  7288
** ... 112 like lines cut
*ELEMENT, TYPE=C3D15, ELSET=Eall
  4531,  2136,  2137,  2276,  2507,  2512,  3438,  4225,  8463,  8462,
        7467, 11474, 11473,  7455,  7466, 11475
  4532,  2507,  2512,  3438,  2508,  2513,  3439,  7467, 11474, 11473,
        7469, 11477, 11476,  7457,  7468, 11478
  4533,  2508,  2513,  3439,  2509,  2514,  3440,  7469, 11477, 11476,
        7471, 11480, 11479,  7459,  7470, 11481
  4534,  2509,  2514,  3440,  2510,  2515,  3441,  7471, 11480, 11479,
        7473, 11483, 11482,  7461,  7472, 11484
  4535,  2510,  2515,  3441,  2511,  2516,  3442,  7473, 11483, 11482,
        7475, 11486, 11485,  7463,  7474, 11487
  4536,  2511,  2516,  3442,  2420,  2421,  2993,  7475, 11486, 11485,
        4267,  7723,  7724,  7465,  7476, 11488
*ELEMENT, TYPE=C3D20, ELSET=Eall
  4537,  2164,  2224,  2225,  2165,  2822,  3178,  3183,  2817,  8466,  8465,
        8464,  4358, 11491, 11490, 11489,  8360,  8359, 11493, 11492,  8348
  4538,  2822,  3178,  3183,  2817,  2823,  3179,  3184,  2818, 11491, 11490,
       11489,  8360, 11496, 11495, 11494,  8362,  8361, 11498, 11497,  8350
  4539,  2823,  3179,  3184,  2818,  2824,  3180,  3185,  2819, 11496, 11495,
       11494,  8362, 11501, 11500, 11499,  8364,  8363, 11503, 11502,  8352
  4540,  2824,  3180,  3185,  2819,  2825,  3181,  3186,  2820, 11501, 11500,
       11499,  8364, 11506, 11505, 11504,  8366,  8365, 11508, 11507,  8354
  4541,  2825,  3181,  3186,  2820,  2826,  3182,  3187,  2821, 11506, 11505,
       11504,  8366, 11511, 11510, 11509,  8368,  8367, 11513, 11512,  8356
  4542,  2826,  3182,  3187,  2821,  2653,  2995,  2994,  2654, 11511, 11510,
       11509,  8368,  7725,  7726,  7727,  4296,  8369, 11515, 11514,  8358
  4543,  2165,  2225,  2226,  2166,  2817,  3183,  3188,  2812,  8464,  8468,
        8467,  4359, 11489, 11517, 11516,  8349,  8348, 11492, 11518,  8337
  4544,  2817,  3183,  3188,  2812,  2818,  3184,  3189,  2813, 11489, 11517,
       11516,  8349, 11494, 11520, 11519,  8351,  8350, 11497, 11521,  8339
  4545,  2818,  3184,  3189,  2813,  2819,  3185,  3190,  2814, 11494, 11520,
       11519,  8351, 11499, 11523, 11522,  8353,  8352, 11502, 11524,  8341
  4546,  2819,  3185,  3190,  2814,  2820,  3186,  3191,  2815, 11499, 11523,
       11522,  8353, 11504, 11526, 11525,  8355,  8354, 11507, 11527,  8343
** ... 700 like lines cut
*ELEMENT, TYPE=C3D15, ELSET=Eall
  4897,  2330,  2345,  2331,  3708,  3783,  3713,  8593,  8592,  8591,
       12510, 12509, 12508, 12511, 12513, 12512
  4898,  3708,  3783,  3713,  3709,  3784,  3714, 12510, 12509, 12508,
       12516, 12515, 12514, 12517, 12519, 12518
  4899,  3709,  3784,  3714,  3710,  3785,  3715, 12516, 12515, 12514,
       12522, 12521, 12520, 12523, 12525, 12524
  4900,  3710,  3785,  3715,  3711,  3786,  3716, 12522, 12521, 12520,
       12528, 12527, 12526, 12529, 12531, 12530
  4901,  3711,  3786,  3716,  3712,  3787,  3717, 12528, 12527, 12526,
       12534, 12533, 12532, 12535, 12537, 12536
  4902,  3712,  3787,  3717,  3058,  3060,  3059, 12534, 12533, 12532,
        7852,  7853,  7854, 12538, 12540, 12539
*ELEMENT, TYPE=C3D20, ELSET=Eall
  4903,  2130,  2281,  2282,  2129,  2477,  3463,  3468,  2472,  8596,  8595,
        8594,  4218, 12543, 12542, 12541,  7390,  7389, 12545, 12544,  7378
  4904,  2477,  3463,  3468,  2472,  2478,  3464,  3469,  2473, 12543, 12542,
       12541,  7390, 12548, 12547, 12546,  7392,  7391, 12550, 12549,  7380
  4905,  2478,  3464,  3469,  2473,  2479,  3465,  3470,  2474, 12548, 12547,
       12546,  7392, 12553, 12552, 12551,  7394,  7393, 12555, 12554,  7382
  4906,  2479,  3465,  3470,  2474,  2480,  3466,  3471,  2475, 12553, 12552,
       12551,  7394, 12558, 12557, 12556,  7396,  7395, 12560, 12559,  7384
  4907,  2480,  3466,  3471,  2475,  2481,  3467,  3472,  2476, 12558, 12557,
       12556,  7396, 12563, 12562, 12561,  7398,  7397, 12565, 12564,  7386
  4908,  2481,  3467,  3472,  2476,  2414,  3062,  3061,  2413, 12563, 12562,
       12561,  7398,  7855,  7856,  7857,  4260,  7399, 12567, 12566,  7388
  4909,  2129,  2282,  2283,  2128,  2472,  3468,  3473,  2467,  8594,  8598,
        8597,  4217, 12541, 12569, 12568,  7379,  7378, 12544, 12570,  7367
  4910,  2472,  3468,  3473,  2467,  2473,  3469,  3474,  2468, 12541, 12569,
       12568,  7379, 12546, 12572, 12571,  7381,  7380, 12549, 12573,  7369
  4911,  2473,  3469,  3474,  2468,  2474,  3470,  3475,  2469, 12546, 12572,
       12571,  7381, 12551, 12575, 12574,  7383,  7382, 12554, 12576,  7371
  4912,  2474,  3470,  3475,  2469,  2475,  3471,  3476,  2470, 12551, 12575,
       12574,  7383, 12556, 12578, 12577,  7385,  7384, 12559, 12579,  7373
** ... 88 like lines cut
*ELEMENT, TYPE=C3D15, ELSET=Eall
  4957,  2356,  2319,  2357,  3838,  3653,  3843,  8614,  8613,  8612,
       12687, 12686, 12685, 12688, 12690, 12689
  4958,  3838,  3653,  3843,  3839,  3654,  3844, 12687, 12686, 12685,
       12693, 12692, 12691, 12694, 12696, 12695
  4959,  3839,  3654,  3844,  3840,  3655,  3845, 12693, 12692, 12691,
       12699, 12698, 12697, 12700, 12702, 12701
  4960,  3840,  3655,  3845,  3841,  3656,  3846, 12699, 12698, 12697,
       12705, 12704, 12703, 12706, 12708, 12707
  4961,  3841,  3656,  3846,  3842,  3657,  3847, 12705, 12704, 12703,
       12711, 12710, 12709, 12712, 12714, 12713
  4962,  3842,  3657,  3847,  3070,  3072,  3071, 12711, 12710, 12709,
        7873,  7874,  7875, 12715, 12717, 12716
*ELEMENT, TYPE=C3D20, ELSET=Eall
  4963,  2201,  2225,  2224,  2202,  2925,  3183,  3178,  2924,  8616,  8465,
        8615,  4403, 12719, 11490, 12718,  8916,  8928, 11492, 11493,  8927
  4964,  2925,  3183,  3178,  2924,  2918,  3184,  3179,  2917, 12719, 11490,
       12718,  8916, 12721, 11495, 12720,  8901,  8917, 11497, 11498,  8915
  4965,  2918,  3184,  3179,  2917,  2911,  3185,  3180,  2910, 12721, 11495,
       12720,  8901, 12723, 11500, 12722,  8886,  8902, 11502, 11503,  8900
  4966,  2911,  3185,  3180,  2910,  2904,  3186,  3181,  2903, 12723, 11500,
       12722,  8886, 12725, 11505, 12724,  8871,  8887, 11507, 11508,  8885
  4967,  2904,  3186,  3181,  2903,  2897,  3187,  3182,  2896, 12725, 11505,
       12724,  8871, 12727, 11510, 12726,  8856,  8872, 11512, 11513,  8870
  4968,  2897,  3187,  3182,  2896,  2890,  2994,  2995,  2891, 12727, 11510,
       12726,  8856,  7876,  7726,  7877,  4335,  8857, 11514, 11515,  8855
  4969,  2202,  2223,  2222,  2203,  2924,  3173,  3168,  2923,  8618,  8461,
        8617,  4404, 12729, 11458, 12728,  8914,  8927, 11459, 11443,  8926
  4970,  2924,  3173,  3168,  2923,  2917,  3174,  3169,  2916, 12729, 11458,
       12728,  8914, 12731, 11461, 12730,  8899,  8915, 11462, 11446,  8913
  4971,  2917,  3174,  3169,  2916,  2910,  3175,  3170,  2909, 12731, 11461,
       12730,  8899, 12733, 11464, 12732,  8884,  8900, 11465, 11449,  8898
  4972,  2910,  3175,  3170,  2909,  2903,  3176,  3171,  2902, 12733, 11464,
       12732,  8884, 12735, 11467, 12734,  8869,  8885, 11468, 11452,  8883
** ... 76 like lines cut
*ELEMENT, TYPE=C3D15, ELSET=Eall
  5011,  2209,  2280,  2208,  2957,  3458,  2952,  8634,  8633,  4412,
       12839, 12838,  8982,  8981, 12494,  8970
  5012,  2957,  3458,  2952,  2958,  3459,  2953, 12839, 12838,  8982,
       12841, 12840,  8984,  8983, 12497,  8972
  5013,  2958,  3459,  2953,  2959,  3460,  2954, 12841, 12840,  8984,
       12843, 12842,  8986,  8985, 12500,  8974
  5014,  2959,  3460,  2954,  2960,  3461,  2955, 12843, 12842,  8986,
       12845, 12844,  8988,  8987, 12503,  8976
  5015,  2960,  3461,  2955,  2961,  3462,  2956, 12845, 12844,  8988,
       12847, 12846,  8990,  8989, 12506,  8978
  5016,  2961,  3462,  2956,  2938,  3057,  2937, 12847, 12846,  8990,
        7894,  7895,  4344,  8991, 12507,  8980
*ELEMENT, TYPE=C3D20, ELSET=Eall
  5017,  2207,  2279,  2278,  2206,  2947,  3453,  3448,  2942,  8635,  8587,
        8576,  4410, 12848, 12472, 12377,  8960,  8959, 12474, 12378,  8948
  5018,  2947,  3453,  3448,  2942,  2948,  3454,  3449,  2943, 12848, 12472,
       12377,  8960, 12849, 12476, 12381,  8962,  8961, 12478, 12382,  8950
  5019,  2948,  3454,  3449,  2943,  2949,  3455,  3450,  2944, 12849, 12476,
       12381,  8962, 12850, 12480, 12385,  8964,  8963, 12482, 12386,  8952
  5020,  2949,  3455,  3450,  2944,  2950,  3456,  3451,  2945, 12850, 12480,
       12385,  8964, 12851, 12484, 12389,  8966,  8965, 12486, 12390,  8954
  5021,  2950,  3456,  3451,  2945,  2951,  3457,  3452,  2946, 12851, 12484,
       12389,  8966, 12852, 12488, 12393,  8968,  8967, 12490, 12394,  8956
  5022,  2951,  3457,  3452,  2946,  2936,  3056,  3050,  2935, 12852, 12488,
       12393,  8968,  7896,  7848,  7835,  4342,  8969, 12491, 12395,  8958
  5023,  2204,  2203,  2222,  2221,  2922,  2923,  3168,  3163,  4405,  8617,
        8459,  8636,  8912, 12728, 11442, 12853,  8925,  8926, 11443, 11427
  5024,  2922,  2923,  3168,  3163,  2915,  2916,  3169,  3164,  8912, 12728,
       11442, 12853,  8897, 12730, 11445, 12854,  8911,  8913, 11446, 11430
  5025,  2915,  2916,  3169,  3164,  2908,  2909,  3170,  3165,  8897, 12730,
       11445, 12854,  8882, 12732, 11448, 12855,  8896,  8898, 11449, 11433
  5026,  2908,  2909,  3170,  3165,  2901,  2902,  3171,  3166,  8882, 12732,
       11448, 12855,  8867, 12734, 11451, 12856,  8881,  8883, 11452, 11436
** ... 940 like lines cut
*ELEMENT, TYPE=C3D15, ELSET=Eall
  5497,  2212,  2283,  2211,  2972,  3473,  2967,  8772,  8771,  4415,
       13829, 13828,  9015,  9014, 12570,  9003
  5498,  2972,  3473,  2967,  2973,  3474,  2968, 13829, 13828,  9015,
       13831, 13830,  9017,  9016, 12573,  9005
  5499,  2973,  3474,  2968,  2974,  3475,  2969, 13831, 13830,  9017,
       13833, 13832,  9019,  9018, 12576,  9007
  5500,  2974,  3475,  2969,  2975,  3476,  2970, 13833, 13832,  9019,
       13835, 13834,  9021,  9020, 12579,  9009
  5501,  2975,  3476,  2970,  2976,  3477,  2971, 13835, 13834,  9021,
       13837, 13836,  9023,  9022, 12582,  9011
  5502,  2976,  3477,  2971,  2941,  3063,  2940, 13837, 13836,  9023,
        8032,  8033,  4347,  9024, 12583,  9013
*ELEMENT, TYPE=C3D20, ELSET=Eall
  5503,  2211,  2283,  2282,  2210,  2967,  3473,  3468,  2962,  8771,  8598,
        8632,  4414, 13828, 12569, 12829,  9004,  9003, 12570, 12544,  8992
  5504,  2967,  3473,  3468,  2962,  2968,  3474,  3469,  2963, 13828, 12569,
       12829,  9004, 13830, 12572, 12831,  9006,  9005, 12573, 12549,  8994
  5505,  2968,  3474,  3469,  2963,  2969,  3475,  3470,  2964, 13830, 12572,
       12831,  9006, 13832, 12575, 12833,  9008,  9007, 12576, 12554,  8996
  5506,  2969,  3475,  3470,  2964,  2970,  3476,  3471,  2965, 13832, 12575,
       12833,  9008, 13834, 12578, 12835,  9010,  9009, 12579, 12559,  8998
  5507,  2970,  3476,  3471,  2965,  2971,  3477,  3472,  2966, 13834, 12578,
       12835,  9010, 13836, 12581, 12837,  9012,  9011, 12582, 12564,  9000
  5508,  2971,  3477,  3472,  2966,  2940,  3063,  3061,  2939, 13836, 12581,
       12837,  9012,  8033,  7858,  7892,  4346,  9013, 12583, 12566,  9002
  5509,  2321,  2354,  2353,  2322,  3663,  3828,  3823,  3668,  8774,  8763,
        8773,  8707, 13839, 13772, 13838, 13378, 13363, 13773, 13757, 13379
  5510,  3663,  3828,  3823,  3668,  3664,  3829,  3824,  3669, 13839, 13772,
       13838, 13378, 13841, 13775, 13840, 13381, 13366, 13776, 13760, 13382
  5511,  3664,  3829,  3824,  3669,  3665,  3830,  3825,  3670, 13841, 13775,
       13840, 13381, 13843, 13778, 13842, 13384, 13369, 13779, 13763, 13385
  5512,  3665,  3830,  3825,  3670,  3666,  3831,  3826,  3671, 13843, 13778,
       13842, 13384, 13845, 13781, 13844, 13387, 13372, 13782, 13766, 13388
** ... 4 like lines cut
*ELEMENT, TYPE=C3D15, ELSET=Eall
  5515,  2116,  2205,  2290,  2360,  2982,  3508,  4407,  8775,  8643,
        8944, 13848, 12902,  4431,  8947, 12903
  5516,  2360,  2982,  3508,  2361,  2981,  3509,  8944, 13848, 12902,
        8941, 13849, 12905,  4432,  8945, 12906
  5517,  2361,  2981,  3509,  2362,  2980,  3510,  8941, 13849, 12905,
        8938, 13850, 12908,  4433,  8942, 12909
  5518,  2362,  2980,  3510,  2363,  2979,  3511,  8938, 13850, 12908,
        8935, 13851, 12911,  4434,  8939, 12912
  5519,  2363,  2979,  3511,  2364,  2978,  3512,  8935, 13851, 12911,
        8932, 13852, 12914,  4435,  8936, 12915
  5520,  2364,  2978,  3512,  2359,  2977,  3081,  8932, 13852, 12914,
        4339,  8036,  7903,  4436,  8933, 12916
*ELEMENT, TYPE=C3D20, ELSET=Eall
  5521,  2324,  2351,  2350,  2325,  3678,  3813,  3808,  3683,  8777,  8757,
        8776,  8713, 13854, 13724, 13853, 13426, 13411, 13725, 13709, 13427
  5522,  3678,  3813,  3808,  3683,  3679,  3814,  3809,  3684, 13854, 13724,
       13853, 13426, 13856, 13727, 13855, 13429, 13414, 13728, 13712, 13430
  5523,  3679,  3814,  3809,  3684,  3680,  3815,  3810,  3685, 13856, 13727,
       13855, 13429, 13858, 13730, 13857, 13432, 13417, 13731, 13715, 13433
  5524,  3680,  3815,  3810,  3685,  3681,  3816,  3811,  3686, 13858, 13730,
       13857, 13432, 13860, 13733, 13859, 13435, 13420, 13734, 13718, 13436
  5525,  3681,  3816,  3811,  3686,  3682,  3817,  3812,  3687, 13860, 13733,
       13859, 13435, 13862, 13736, 13861, 13438, 13423, 13737, 13721, 13439
  5526,  3682,  3817,  3812,  3687,  3109,  3123,  3122,  3110, 13862, 13736,
       13861, 13438,  8037,  8017,  8038,  7973, 13424, 13738, 13722, 13440
  5527,  2290,  2205,  2288,  2338,  3508,  2982,  3498,  3748,  8775,  8622,
        8734,  8732, 13848, 12765, 13577, 13557, 12903,  8947, 12768, 13558
  5528,  3508,  2982,  3498,  3748,  3509,  2981,  3499,  3749, 13848, 12765,
       13577, 13557, 13849, 12770, 13578, 13560, 12906,  8945, 12773, 13561
  5529,  3509,  2981,  3499,  3749,  3510,  2980,  3500,  3750, 13849, 12770,
       13578, 13560, 13850, 12775, 13579, 13563, 12909,  8942, 12778, 13564
  5530,  3510,  2980,  3500,  3750,  3511,  2979,  3501,  3751, 13850, 12775,
       13579, 13563, 13851, 12780, 13580, 13566, 12912,  8939, 12783, 13567
** ... 16 like lines cut
*ELEMENT, TYPE=C3D15, ELSET=Eall
  5539,  2199,  2226,  2200,  2927,  3188,  2926,  8611,  8780,  4401,
       12680, 13873,  8920,  8930, 11518,  8929
  5540,  2927,  3188,  2926,  2920,  3189,  2919, 12680, 13873,  8920,
       12681, 13874,  8905,  8921, 11521,  8919
  5541,  2920,  3189,  2919,  2913,  3190,  2912, 12681, 13874,  8905,
       12682, 13875,  8890,  8906, 11524,  8904
  5542,  2913,  3190,  2912,  2906,  3191,  2905, 12682, 13875,  8890,
       12683, 13876,  8875,  8891, 11527,  8889
  5543,  2906,  3191,  2905,  2899,  3192,  2898, 12683, 13876,  8875,
       12684, 13877,  8860,  8876, 11530,  8874
  5544,  2899,  3192,  2898,  2888,  2996,  2889, 12684, 13877,  8860,
        7872,  8041,  4333,  8861, 11531,  8859
*ELEMENT, TYPE=C3D20, ELSET=Eall
  5545,  2200,  2226,  2225,  2201,  2926,  3188,  3183,  2925,  8780,  8468,
        8616,  4402, 13873, 11517, 12719,  8918,  8929, 11518, 11492,  8928
  5546,  2926,  3188,  3183,  2925,  2919,  3189,  3184,  2918, 13873, 11517,
       12719,  8918, 13874, 11520, 12721,  8903,  8919, 11521, 11497,  8917
  5547,  2919,  3189,  3184,  2918,  2912,  3190,  3185,  2911, 13874, 11520,
       12721,  8903, 13875, 11523, 12723,  8888,  8904, 11524, 11502,  8902
  5548,  2912,  3190,  3185,  2911,  2905,  3191,  3186,  2904, 13875, 11523,
       12723,  8888, 13876, 11526, 12725,  8873,  8889, 11527, 11507,  8887
  5549,  2905,  3191,  3186,  2904,  2898,  3192,  3187,  2897, 13876, 11526,
       12725,  8873, 13877, 11529, 12727,  8858,  8874, 11530, 11512,  8872
  5550,  2898,  3192,  3187,  2897,  2889,  2996,  2994,  2890, 13877, 11529,
       12727,  8858,  8041,  7728,  7876,  4334,  8859, 11531, 11514,  8857
  5551,  2332,  2344,  2343,  2333,  3718,  3778,  3773,  3723,  8600,  8744,
        8781,  8727, 12585, 13629, 13878, 13526, 12587, 12588, 13614, 13527
  5552,  3718,  3778,  3773,  3723,  3719,  3779,  3774,  3724, 12585, 13629,
       13878, 13526, 12590, 13631, 13879, 13529, 12592, 12593, 13617, 13530
  5553,  3719,  3779,  3774,  3724,  3720,  3780,  3775,  3725, 12590, 13631,
       13879, 13529, 12595, 13633, 13880, 13532, 12597, 12598, 13620, 13533
  5554,  3720,  3780,  3775,  3725,  3721,  3781,  3776,  3726, 12595, 13633,
       13880, 13532, 12600, 13635, 13881, 13535, 12602, 12603, 13623, 13536
** ... 16 like lines cut
*ELEMENT, TYPE=C3D15, ELSET=Eall
  5563,  2127,  2128,  2284,  2462,  2467,  3478,  4216,  8782,  8604,
        7368, 13883, 12613,  7356,  7367, 12615
  5564,  2462,  2467,  3478,  2463,  2468,  3479,  7368, 13883, 12613,
        7370, 13884, 12618,  7358,  7369, 12620
  5565,  2463,  2468,  3479,  2464,  2469,  3480,  7370, 13884, 12618,
        7372, 13885, 12623,  7360,  7371, 12625
  5566,  2464,  2469,  3480,  2465,  2470,  3481,  7372, 13885, 12623,
        7374, 13886, 12628,  7362,  7373, 12630
  5567,  2465,  2470,  3481,  2466,  2471,  3482,  7374, 13886, 12628,
        7376, 13887, 12633,  7364,  7375, 12635
  5568,  2466,  2471,  3482,  2411,  2412,  3067,  7376, 13887, 12633,
        4258,  8043,  7863,  7366,  7377, 12637
*ELEMENT, TYPE=C3D20, ELSET=Eall
  5569,  2284,  2128,  2283,  2212,  3478,  2467,  3473,  2972,  8782,  8597,
        8772,  8627, 13883, 12568, 13829, 12802, 12615,  7367, 12570,  9014
  5570,  3478,  2467,  3473,  2972,  3479,  2468,  3474,  2973, 13883, 12568,
       13829, 12802, 13884, 12571, 13831, 12804, 12620,  7369, 12573,  9016
  5571,  3479,  2468,  3474,  2973,  3480,  2469,  3475,  2974, 13884, 12571,
       13831, 12804, 13885, 12574, 13833, 12806, 12625,  7371, 12576,  9018
  5572,  3480,  2469,  3475,  2974,  3481,  2470,  3476,  2975, 13885, 12574,
       13833, 12806, 13886, 12577, 13835, 12808, 12630,  7373, 12579,  9020
  5573,  3481,  2470,  3476,  2975,  3482,  2471,  3477,  2976, 13886, 12577,
       13835, 12808, 13887, 12580, 13837, 12810, 12635,  7375, 12582,  9022
  5574,  3482,  2471,  3477,  2976,  3067,  2412,  3063,  2941, 13887, 12580,
       13837, 12810,  8043,  7859,  8032,  7889, 12637,  7377, 12583,  9024
  5575,  2295,  2339,  2341,  2296,  3533,  3753,  3763,  3538,  8737,  8474,
        8739,  8654, 13592, 11561, 13598, 12969, 12954, 11564, 11565, 12970
  5576,  3533,  3753,  3763,  3538,  3534,  3754,  3764,  3539, 13592, 11561,
       13598, 12969, 13593, 11568, 13600, 12972, 12957, 11571, 11572, 12973
  5577,  3534,  3754,  3764,  3539,  3535,  3755,  3765,  3540, 13593, 11568,
       13600, 12972, 13594, 11575, 13602, 12975, 12960, 11578, 11579, 12976
  5578,  3535,  3755,  3765,  3540,  3536,  3756,  3766,  3541, 13594, 11575,
       13602, 12975, 13595, 11582, 13604, 12978, 12963, 11585, 11586, 12979
** ... 4 like lines cut
*ELEMENT, TYPE=C3D15, ELSET=Eall
  5581,  2130,  2131,  2281,  2477,  2482,  3463,  4219,  8783,  8596,
        7401, 13888, 12543,  7389,  7400, 12545
  5582,  2477,  2482,  3463,  2478,  2483,  3464,  7401, 13888, 12543,
        7403, 13889, 12548,  7391,  7402, 12550
  5583,  2478,  2483,  3464,  2479,  2484,  3465,  7403, 13889, 12548,
        7405, 13890, 12553,  7393,  7404, 12555
  5584,  2479,  2484,  3465,  2480,  2485,  3466,  7405, 13890, 12553,
        7407, 13891, 12558,  7395,  7406, 12560
  5585,  2480,  2485,  3466,  2481,  2486,  3467,  7407, 13891, 12558,
        7409, 13892, 12563,  7397,  7408, 12565
  5586,  2481,  2486,  3467,  2414,  2415,  3062,  7409, 13892, 12563,
        4261,  8044,  7855,  7399,  7410, 12567
*ELEMENT, TYPE=C3D20, ELSET=Eall
  5587,  2281,  2131,  2280,  2209,  3463,  2482,  3458,  2957,  8783,  8589,
        8634,  8631, 13888, 12492, 12839, 12828, 12545,  7400, 12494,  8981
  5588,  3463,  2482,  3458,  2957,  3464,  2483,  3459,  2958, 13888, 12492,
       12839, 12828, 13889, 12495, 12841, 12830, 12550,  7402, 12497,  8983
  5589,  3464,  2483,  3459,  2958,  3465,  2484,  3460,  2959, 13889, 12495,
       12841, 12830, 13890, 12498, 12843, 12832, 12555,  7404, 12500,  8985
  5590,  3465,  2484,  3460,  2959,  3466,  2485,  3461,  2960, 13890, 12498,
       12843, 12832, 13891, 12501, 12845, 12834, 12560,  7406, 12503,  8987
  5591,  3466,  2485,  3461,  2960,  3467,  2486,  3462,  2961, 13891, 12501,
       12845, 12834, 13892, 12504, 12847, 12836, 12565,  7408, 12506,  8989
  5592,  3467,  2486,  3462,  2961,  3062,  2415,  3057,  2938, 13892, 12504,
       12847, 12836,  8044,  7851,  7894,  7893, 12567,  7410, 12507,  8991
*ELEMENT, TYPE=C3D15, ELSET=Eall
  5593,  2133,  2134,  2278,  2492,  2497,  3448,  4222,  8575,  8588,
        7434, 12376, 12473,  7422,  7433, 12378
  5594,  2492,  2497,  3448,  2493,  2498,  3449,  7434, 12376, 12473,
        7436, 12380, 12477,  7424,  7435, 12382
  5595,  2493,  2498,  3449,  2494,  2499,  3450,  7436, 12380, 12477,
        7438, 12384, 12481,  7426,  7437, 12386
  5596,  2494,  2499,  3450,  2495,  2500,  3451,  7438, 12384, 12481,
        7440, 12388, 12485,  7428,  7439, 12390
  5597,  2495,  2500,  3451,  2496,  2501,  3452,  7440, 12388, 12485,
        7442, 12392, 12489,  7430,  7441, 12394
  5598,  2496,  2501,  3452,  2417,  2418,  3050,  7442, 12392, 12489,
        4264,  7836,  7847,  7432,  7443, 12395
*ELEMENT, TYPE=C3D20, ELSET=Eall
  5599,  2204,  2221,  2220,  2115,  2922,  3163,  3158,  2370,  8636,  8457,
        8646,  4406, 12853, 11426, 12923,  8910,  8925, 11427, 11411,  4424
  5600,  2922,  3163,  3158,  2370,  2915,  3164,  3159,  2369, 12853, 11426,
       12923,  8910, 12854, 11429, 12925,  8895,  8911, 11430, 11414,  4423
  5601,  2915,  3164,  3159,  2369,  2908,  3165,  3160,  2368, 12854, 11429,
       12925,  8895, 12855, 11432, 12927,  8880,  8896, 11433, 11417,  4422
  5602,  2908,  3165,  3160,  2368,  2901,  3166,  3161,  2367, 12855, 11432,
       12927,  8880, 12856, 11435, 12929,  8865,  8881, 11436, 11420,  4421
  5603,  2901,  3166,  3161,  2367,  2894,  3167,  3162,  2366, 12856, 11435,
       12929,  8865, 12857, 11438, 12931,  8850,  8866, 11439, 11423,  4420
  5604,  2894,  3167,  3162,  2366,  2893,  2990,  2989,  2365, 12857, 11438,
       12931,  8850,  7897,  7717,  7906,  4338,  8851, 11440, 11424,  4419
*ELEMENT, TYPE=C3D15, ELSET=Eall
  5605,  2135,  2136,  2277,  2502,  2507,  3443,  4224,  8784,  8578,
        7456, 13893, 12397,  7444,  7455, 12398
  5606,  2502,  2507,  3443,  2503,  2508,  3444,  7456, 13893, 12397,
        7458, 13894, 12400,  7446,  7457, 12401
  5607,  2503,  2508,  3444,  2504,  2509,  3445,  7458, 13894, 12400,
        7460, 13895, 12403,  7448,  7459, 12404
  5608,  2504,  2509,  3445,  2505,  2510,  3446,  7460, 13895, 12403,
        7462, 13896, 12406,  7450,  7461, 12407
  5609,  2505,  2510,  3446,  2506,  2511,  3447,  7462, 13896, 12406,
        7464, 13897, 12409,  7452,  7463, 12410
  5610,  2506,  2511,  3447,  2419,  2420,  3051,  7464, 13897, 12409,
        4266,  8045,  7838,  7454,  7465, 12411
*ELEMENT, TYPE=C3D20, ELSET=Eall
  5611,  2277,  2136,  2276,  2294,  3443,  2507,  3438,  3528,  8784,  8462,
        8629,  8648, 13893, 11473, 12812, 12933, 12398,  7455, 11475, 12814
  5612,  3443,  2507,  3438,  3528,  3444,  2508,  3439,  3529, 13893, 11473,
       12812, 12933, 13894, 11476, 12815, 12935, 12401,  7457, 11478, 12817
  5613,  3444,  2508,  3439,  3529,  3445,  2509,  3440,  3530, 13894, 11476,
       12815, 12935, 13895, 11479, 12818, 12937, 12404,  7459, 11481, 12820
  5614,  3445,  2509,  3440,  3530,  3446,  2510,  3441,  3531, 13895, 11479,
       12818, 12937, 13896, 11482, 12821, 12939, 12407,  7461, 11484, 12823
  5615,  3446,  2510,  3441,  3531,  3447,  2511,  3442,  3532, 13896, 11482,
       12821, 12939, 13897, 11485, 12824, 12941, 12410,  7463, 11487, 12826
  5616,  3447,  2511,  3442,  3532,  3051,  2420,  2993,  3077, 13897, 11485,
       12824, 12941,  8045,  7724,  7891,  7908, 12411,  7465, 11488, 12827
*ELEMENT, TYPE=C3D15, ELSET=Eall
  5617,  2168,  2167,  2227,  2802,  2807,  3193,  4361,  8580,  8478,
        8327, 12413, 11599,  8315,  8326, 11601
  5618,  2802,  2807,  3193,  2803,  2808,  3194,  8327, 12413, 11599,
        8329, 12416, 11604,  8317,  8328, 11606
  5619,  2803,  2808,  3194,  2804,  2809,  3195,  8329, 12416, 11604,
        8331, 12419, 11609,  8319,  8330, 11611
  5620,  2804,  2809,  3195,  2805,  2810,  3196,  8331, 12419, 11609,
        8333, 12422, 11614,  8321,  8332, 11616
  5621,  2805,  2810,  3196,  2806,  2811,  3197,  8333, 12422, 11614,
        8335, 12425, 11619,  8323,  8334, 11621
  5622,  2806,  2811,  3197,  2657,  2656,  3003,  8335, 12425, 11619,
        4299,  7841,  7737,  8325,  8336, 11623
*ELEMENT, TYPE=C3D20, ELSET=Eall
  5623,  2320,  2319,  2356,  2355,  3658,  3653,  3838,  3833,  8703,  8614,
        8767,  8785, 13346, 12687, 13804, 13898, 13347, 12690, 12688, 13789
  5624,  3658,  3653,  3838,  3833,  3659,  3654,  3839,  3834, 13346, 12687,
       13804, 13898, 13349, 12693, 13806, 13899, 13350, 12696, 12694, 13792
  5625,  3659,  3654,  3839,  3834,  3660,  3655,  3840,  3835, 13349, 12693,
       13806, 13899, 13352, 12699, 13808, 13900, 13353, 12702, 12700, 13795
  5626,  3660,  3655,  3840,  3835,  3661,  3656,  3841,  3836, 13352, 12699,
       13808, 13900, 13355, 12705, 13810, 13901, 13356, 12708, 12706, 13798
  5627,  3661,  3656,  3841,  3836,  3662,  3657,  3842,  3837, 13355, 12705,
       13810, 13901, 13358, 12711, 13812, 13902, 13359, 12714, 12712, 13801
  5628,  3662,  3657,  3842,  3837,  3105,  3072,  3070,  3127, 13358, 12711,
       13812, 13902,  7963,  7873,  8027,  8046, 13360, 12717, 12715, 13802
*ELEMENT, TYPE=C3D15, ELSET=Eall
  5629,  2164,  2163,  2224,  2822,  2827,  3178,  4357,  8786,  8466,
        8371, 13903, 11491,  8359,  8370, 11493
  5630,  2822,  2827,  3178,  2823,  2828,  3179,  8371, 13903, 11491,
        8373, 13904, 11496,  8361,  8372, 11498
  5631,  2823,  2828,  3179,  2824,  2829,  3180,  8373, 13904, 11496,
        8375, 13905, 11501,  8363,  8374, 11503
  5632,  2824,  2829,  3180,  2825,  2830,  3181,  8375, 13905, 11501,
        8377, 13906, 11506,  8365,  8376, 11508
  5633,  2825,  2830,  3181,  2826,  2831,  3182,  8377, 13906, 11506,
        8379, 13907, 11511,  8367,  8378, 11513
  5634,  2826,  2831,  3182,  2653,  2652,  2995,  8379, 13907, 11511,
        4295,  8047,  7725,  8369,  8380, 11515
*ELEMENT, TYPE=C3D20, ELSET=Eall
  5635,  2224,  2163,  2223,  2202,  3178,  2827,  3173,  2924,  8786,  8460,
        8618,  8615, 13903, 11457, 12729, 12718, 11493,  8370, 11459,  8927
  5636,  3178,  2827,  3173,  2924,  3179,  2828,  3174,  2917, 13903, 11457,
       12729, 12718, 13904, 11460, 12731, 12720, 11498,  8372, 11462,  8915
  5637,  3179,  2828,  3174,  2917,  3180,  2829,  3175,  2910, 13904, 11460,
       12731, 12720, 13905, 11463, 12733, 12722, 11503,  8374, 11465,  8900
  5638,  3180,  2829,  3175,  2910,  3181,  2830,  3176,  2903, 13905, 11463,
       12733, 12722, 13906, 11466, 12735, 12724, 11508,  8376, 11468,  8885
  5639,  3181,  2830,  3176,  2903,  3182,  2831,  3177,  2896, 13906, 11466,
       12735, 12724, 13907, 11469, 12737, 12726, 11513,  8378, 11471,  8870
  5640,  3182,  2831,  3177,  2896,  2995,  2652,  2992,  2891, 13907, 11469,
       12737, 12726,  8047,  7722,  7878,  7877, 11515,  8380, 11472,  8855
  5641,  2329,  2346,  2345,  2330,  3703,  3788,  3783,  3708,  8787,  8747,
        8593,  8723, 13908, 13644, 12510, 13506, 13491, 13645, 12513, 12511
  5642,  3703,  3788,  3783,  3708,  3704,  3789,  3784,  3709, 13908, 13644,
       12510, 13506, 13909, 13647, 12516, 13508, 13494, 13648, 12519, 12517
  5643,  3704,  3789,  3784,  3709,  3705,  3790,  3785,  3710, 13909, 13647,
       12516, 13508, 13910, 13650, 12522, 13510, 13497, 13651, 12525, 12523
  5644,  3705,  3790,  3785,  3710,  3706,  3791,  3786,  3711, 13910, 13650,
       12522, 13510, 13911, 13653, 12528, 13512, 13500, 13654, 12531, 12529
** ... 28 like lines cut
*ELEMENT, TYPE=C3D15, ELSET=Eall
  5659,  2294,  2337,  2292,  3528,  3743,  3518,  8630,  8736,  8647,
       12813, 13583, 12932, 12814, 11563, 12862
  5660,  3528,  3743,  3518,  3529,  3744,  3519, 12813, 13583, 12932,
       12816, 13585, 12934, 12817, 11570, 12867
  5661,  3529,  3744,  3519,  3530,  3745,  3520, 12816, 13585, 12934,
       12819, 13587, 12936, 12820, 11577, 12872
  5662,  3530,  3745,  3520,  3531,  3746,  3521, 12819, 13587, 12936,
       12822, 13589, 12938, 12823, 11584, 12877
  5663,  3531,  3746,  3521,  3532,  3747,  3522, 12822, 13589, 12938,
       12825, 13591, 12940, 12826, 11591, 12882
  5664,  3532,  3747,  3522,  3077,  2999,  3079, 12825, 13591, 12940,
        7890,  7996,  7909, 12827, 11594, 12884
*ELEMENT, TYPE=C3D20, ELSET=Eall
  5665,  2326,  2325,  2350,  2349,  3688,  3683,  3808,  3803,  8715,  8776,
        8755,  8788, 13442, 13853, 13708, 13913, 13443, 13427, 13709, 13693
  5666,  3688,  3683,  3808,  3803,  3689,  3684,  3809,  3804, 13442, 13853,
       13708, 13913, 13445, 13855, 13711, 13914, 13446, 13430, 13712, 13696
  5667,  3689,  3684,  3809,  3804,  3690,  3685,  3810,  3805, 13445, 13855,
       13711, 13914, 13448, 13857, 13714, 13915, 13449, 13433, 13715, 13699
  5668,  3690,  3685,  3810,  3805,  3691,  3686,  3811,  3806, 13448, 13857,
       13714, 13915, 13451, 13859, 13717, 13916, 13452, 13436, 13718, 13702
  5669,  3691,  3686,  3811,  3806,  3692,  3687,  3812,  3807, 13451, 13859,
       13717, 13916, 13454, 13861, 13720, 13917, 13455, 13439, 13721, 13705
  5670,  3692,  3687,  3812,  3807,  3111,  3110,  3122,  3121, 13454, 13861,
       13720, 13917,  7975,  8038,  8015,  8049, 13456, 13440, 13722, 13706
  5671,  2323,  2352,  2351,  2324,  3673,  3818,  3813,  3678,  8789,  8759,
        8777,  8711, 13918, 13740, 13854, 13410, 13395, 13741, 13725, 13411
  5672,  3673,  3818,  3813,  3678,  3674,  3819,  3814,  3679, 13918, 13740,
       13854, 13410, 13919, 13743, 13856, 13413, 13398, 13744, 13728, 13414
  5673,  3674,  3819,  3814,  3679,  3675,  3820,  3815,  3680, 13919, 13743,
       13856, 13413, 13920, 13746, 13858, 13416, 13401, 13747, 13731, 13417
  5674,  3675,  3820,  3815,  3680,  3676,  3821,  3816,  3681, 13920, 13746,
       13858, 13416, 13921, 13749, 13860, 13419, 13404, 13750, 13734, 13420
** ... 28 like lines cut
** Names based on C3D15
*ELSET,ELSET=C3D15 
2007, 
2008, 
2011, 
2012, 
2069, 
2070, 
2875, 
2876, 
2971, 
2972, 
3015, 
3016, 
3075, 
3076, 
3081, 
3082, 
3137, 
3138, 
3139, 
3140, 
** ... 98 like lines cut
** Names based on uzmove
*NSET,NSET=uzmove 
2112, 
2113, 
2193, 
2194, 
2195, 
2196, 
2197, 
4393, 
4394, 
4395, 
4396, 
4397, 
4398, 
** Names based on uzfix
*NSET,NSET=uzfix 
7, 
708, 
709, 
4157, 
4158, 
** Names based on master
*NSET,NSET=master 
2114, 
2115, 
2116, 
2117, 
2198, 
2199, 
2200, 
2201, 
2202, 
2203, 
2204, 
2205, 
2206, 
2207, 
2208, 
2209, 
2210, 
2211, 
2212, 
2213, 
** ... 380 like lines cut
** Names based on slave
*NSET,NSET=slave 
1, 
2, 
3, 
4, 
5, 
6, 
7, 
8, 
9, 
10, 
11, 
12, 
13, 
14, 
15, 
16, 
17, 
18, 
19, 
20, 
** ... 4386 like lines cut
** Names based on C3D20
*ELSET,ELSET=C3D20 
1915, 
1916, 
1917, 
1918, 
1919, 
1920, 
1921, 
1922, 
1923, 
1924, 
1925, 
1926, 
1927, 
1928, 
1929, 
1930, 
1931, 
1932, 
1933, 
1934, 
** ... 2348 like lines cut
** Surfaces based on uzmove
*SURFACE, NAME=uzmove
** Surfaces based on C3D15
*SURFACE, NAME=C3D15
** Surfaces based on slave
*SURFACE, NAME=slave
2001, S1
2001, S6
2003, S1
1915, S1
1915, S6
2013, S1
2015, S1
2209, S1
2209, S6
2069, S1
2601, S1
2135, S1
2135, S6
2133, S1
2083, S1
2127, S1
2125, S1
1999, S1
1999, S6
1997, S1
** ... 1406 like lines cut
** Surfaces based on all
*SURFACE, NAME=all
2001, S1
2001, S6
2003, S1
2003, S6
1915, S1
1915, S6
1915, S3
2013, S1
2013, S6
2015, S1
2015, S6
2209, S1
2209, S5
2209, S6
2069, S1
2069, S3
2601, S1
2601, S6
2135, S1
2135, S6
** ... 2592 like lines cut
** Surfaces based on master
*SURFACE, NAME=master
4945, S6
5035, S6
5599, S6
4981, S6
5515, S3
4993, S6
4867, S3
5029, S6
4951, S3
5539, S5
5545, S6
4963, S6
4969, S6
5023, S3
5017, S6
5341, S6
5011, S5
5005, S6
5503, S6
5497, S5
** ... 100 like lines cut
** Surfaces based on C3D20
*SURFACE, NAME=C3D20
** Surfaces based on uzfix
*SURFACE, NAME=uzfix

*MATERIAL,NAME=steel
*ELASTIC
2.9000E+07,0.28


*DENSITY
7.3500E-04
*EXPANSION
7.2280E-06

*SOLID SECTION,MATERIAL=steel,ELSET=Eall

*BOUNDARY
uzfix,1,1,0
uzfix,2,2,0
uzfix,3,3,0

*BOUNDARY
uzmove,1,1,0
uzmove,2,2,0
uzmove,3,3,0.25

*CONTACT PAIR,INTERACTION=SI1,TYPE=SURFACE TO SURFACE,ADJUST=0
slave,master
*SURFACE INTERACTION,NAME=SI1
*SURFACE BEHAVIOR,PRESSURE-OVERCLOSURE=Linear
1450000000,0

*FRICTION
0.3,145000000



*STEP,NLGEOM,INC=100
*STATIC
0.1,1
  *NODE FILE 
U,
  *EL FILE
S,
*NODE PRINT,NSET=uzfix
RF
*NODE PRINT,NSET=uzmove
RF
*CONTACT OUTPUT
CDIS,CSTR 
*END STEP
