*NODE, NSET=Nall
       1,4.000000000000e+00,1.000000000000e+00,-1.040834085586e-17
       2,3.900000000000e+00,1.000000000000e+00,-1.040834085586e-17
       3,3.900000000000e+00,1.000000000000e+00,1.000000000000e+00
       4,4.000000000000e+00,1.000000000000e+00,1.000000000000e+00
       5,4.000000000000e+00,1.100000000000e+00,-1.040834085586e-17
       6,3.900000000000e+00,1.100000000000e+00,-1.040834085586e-17
       7,3.900000000000e+00,1.100000000000e+00,1.000000000000e+00
       8,4.000000000000e+00,1.100000000000e+00,1.000000000000e+00
       9,4.000000000000e+00,1.200000000000e+00,-1.040834085586e-17
      10,3.900000000000e+00,1.200000000000e+00,-1.040834085586e-17
      11,3.900000000000e+00,1.200000000000e+00,1.000000000000e+00
      12,4.000000000000e+00,1.200000000000e+00,1.000000000000e+00
      13,4.000000000000e+00,1.300000000000e+00,-1.040834085586e-17
      14,3.900000000000e+00,1.300000000000e+00,-1.040834085586e-17
      15,3.900000000000e+00,1.300000000000e+00,1.000000000000e+00
      16,4.000000000000e+00,1.300000000000e+00,1.000000000000e+00
      17,4.000000000000e+00,1.400000000000e+00,-1.040834085586e-17
      18,3.900000000000e+00,1.400000000000e+00,-1.040834085586e-17
      19,3.900000000000e+00,1.400000000000e+00,1.000000000000e+00
      20,4.000000000000e+00,1.400000000000e+00,1.000000000000e+00
** ... 7798 like lines cut
*ELEMENT, TYPE=F3D8, ELSET=Eall
     1,     1,     2,     3,     4,     5,     6,     7,     8
     2,     5,     6,     7,     8,     9,    10,    11,    12
     3,     9,    10,    11,    12,    13,    14,    15,    16
     4,    13,    14,    15,    16,    17,    18,    19,    20
     5,    17,    18,    19,    20,    21,    22,    23,    24
     6,    21,    22,    23,    24,    25,    26,    27,    28
     7,    25,    26,    27,    28,    29,    30,    31,    32
     8,    29,    30,    31,    32,    33,    34,    35,    36
     9,    33,    34,    35,    36,    37,    38,    39,    40
    10,    37,    38,    39,    40,    41,    42,    43,    44
    11,    41,    42,    43,    44,    45,    46,    47,    48
    12,    45,    46,    47,    48,    49,    50,    51,    52
    13,    49,    50,    51,    52,    53,    54,    55,    56
    14,    53,    54,    55,    56,    57,    58,    59,    60
    15,    57,    58,    59,    60,    61,    62,    63,    64
    16,    61,    62,    63,    64,    65,    66,    67,    68
    17,    65,    66,    67,    68,    69,    70,    71,    72
    18,    69,    70,    71,    72,    73,    74,    75,    76
    19,    73,    74,    75,    76,    77,    78,    79,    80
    20,    77,    78,    79,    80,    81,    82,    83,    84
** ... 3720 like lines cut
** Names based on n0
*NSET,NSET=Nn0 
1681, 
1682, 
1721, 
1722, 
** Names based on n1
*NSET,NSET=Nn1 
1683, 
1684, 
1719, 
1720, 
** Names based on n2
*NSET,NSET=Nn2 
1685, 
1686, 
1717, 
1718, 
** Names based on n3
*NSET,NSET=Nn3 
1687, 
1688, 
1715, 
1716, 
** Names based on n4
*NSET,NSET=Nn4 
1689, 
1690, 
1713, 
1714, 
** Names based on n5
*NSET,NSET=Nn5 
1691, 
1692, 
1711, 
1712, 
** Names based on n6
*NSET,NSET=Nn6 
1693, 
1694, 
1709, 
1710, 
** Names based on n7
*NSET,NSET=Nn7 
1695, 
1696, 
1707, 
1708, 
** Names based on n8
*NSET,NSET=Nn8 
1697, 
1698, 
1705, 
1706, 
** Names based on n9
*NSET,NSET=Nn9 
1699, 
1700, 
1703, 
1704, 
** Names based on n10
*NSET,NSET=Nn10 
1701, 
1702, 
** Names based on out
*NSET,NSET=Nout 
1723, 
1726, 
1727, 
1730, 
1731, 
1734, 
1735, 
1738, 
1739, 
1742, 
1743, 
1746, 
1747, 
1750, 
1751, 
1754, 
1755, 
1758, 
1759, 
1762, 
** ... 42 like lines cut
** Names based on wall
*NSET,NSET=Nwall 
1, 
2, 
3, 
4, 
81, 
82, 
83, 
84, 
85, 
86, 
125, 
126, 
127, 
128, 
167, 
168, 
169, 
170, 
209, 
210, 
** ... 548 like lines cut
** Names based on in
*NSET,NSET=Nin 
1681, 
1682, 
1683, 
1684, 
1685, 
1686, 
1687, 
1688, 
1689, 
1690, 
1691, 
1692, 
1693, 
1694, 
1695, 
1696, 
1697, 
1698, 
1699, 
1700, 
** ... 22 like lines cut
** Names based on m0
*NSET,NSET=Nm0 
1803, 
1806, 
5839, 
5842, 
** Names based on m1
*NSET,NSET=Nm1 
1799, 
1802, 
5843, 
5846, 
** Names based on m2
*NSET,NSET=Nm2 
1795, 
1798, 
5847, 
5850, 
** Names based on m3
*NSET,NSET=Nm3 
1791, 
1794, 
5851, 
5854, 
** Names based on m4
*NSET,NSET=Nm4 
1787, 
1790, 
5855, 
5858, 
** Names based on m5
*NSET,NSET=Nm5 
1783, 
1786, 
5859, 
5862, 
** Names based on m6
*NSET,NSET=Nm6 
1779, 
1782, 
5863, 
5866, 
** Names based on m7
*NSET,NSET=Nm7 
1775, 
1778, 
5867, 
5870, 
** Names based on m8
*NSET,NSET=Nm8 
1771, 
1774, 
5871, 
5874, 
** Names based on m9
*NSET,NSET=Nm9 
1767, 
1770, 
5875, 
5878, 
** Names based on m10
*NSET,NSET=Nm10 
1723, 
1726, 
1763, 
1766, 
** Names based on m11
*NSET,NSET=Nm11 
1727, 
1730, 
1759, 
1762, 
** Names based on m12
*NSET,NSET=Nm12 
1731, 
1734, 
1755, 
1758, 
** Names based on m13
*NSET,NSET=Nm13 
1735, 
1738, 
1751, 
1754, 
** Names based on m14
*NSET,NSET=Nm14 
1739, 
1742, 
1747, 
1750, 
** Names based on m15
*NSET,NSET=Nm15 
1743, 
1746, 
*MATERIAL,NAME=WATER
*DENSITY
1.
*FLUID CONSTANTS
,0.0131,293.
*SOLID SECTION,ELSET=Eall,MATERIAL=WATER
*INITIAL CONDITIONS,TYPE=FLUID VELOCITY
Nall,1,0.
Nall,2,0.
Nall,3,0.
*INITIAL CONDITIONS,TYPE=PRESSURE
Nall,1.
**
*STEP,INCF=20000
*STATIC
***CFD,STEADY STATE,FEM
*BOUNDARY
Nwall,1,3,0.
**Nout,1,1,1.
Nout,2,3,0.
**5839,1,1,0.
**5842,1,1,0.
**1803,1,1,0.
**1806,1,1,0.
**1743,1,1,1.5
**1746,1,1,1.5
Nin,8,8,1.
Nn0,1,1,0.
Nn0,2,3,0.
Nn1,1,1,0.4275
Nn1,2,3,0.
Nn2,1,1,0.81
Nn2,2,3,0.
Nn3,1,1,1.1475
Nn3,2,3,0.
Nn4,1,1,1.44
Nn4,2,3,0.
Nn5,1,1,1.6875
Nn5,2,3,0.
Nn6,1,1,1.89
Nn6,2,3,0.
Nn7,1,1,2.0475
Nn7,2,3,0.
Nn8,1,1,2.16
Nn8,2,3,0.
Nn9,1,1,2.2275
Nn9,2,3,0.
Nn10,1,1,2.25
Nn10,2,3,0.
Nm0,1,1,0.
Nm1,1,1,0.193333
Nm2,1,1,0.373333
Nm3,1,1,0.54
Nm4,1,1,0.693333
Nm5,1,1,0.833333
Nm6,1,1,0.96
Nm7,1,1,1.073333
Nm8,1,1,1.173333
Nm9,1,1,1.26
Nm10,1,1,1.333333
Nm11,1,1,1.393333
Nm12,1,1,1.44
Nm13,1,1,1.473333
Nm14,1,1,1.493333
Nm15,1,1,1.5
*NODE FILE,FREQUENCYF=20000
V,PS
*END STEP
