*NODE, NSET=Nall
       1,1.000000000000e+00,1.000000000000e+00,0.000000000000e+00
       2,1.000000000000e+00,7.834577808724e-01,0.000000000000e+00
       3,1.000000000000e+00,7.834577808724e-01,1.000000000000e-01
       4,1.000000000000e+00,1.000000000000e+00,1.000000000000e-01
       5,9.500000000000e-01,1.000000000000e+00,0.000000000000e+00
       6,9.500000000000e-01,7.834577808724e-01,0.000000000000e+00
       7,9.500000000000e-01,7.834577808724e-01,1.000000000000e-01
       8,9.500000000000e-01,1.000000000000e+00,1.000000000000e-01
       9,9.000000000000e-01,1.000000000000e+00,0.000000000000e+00
      10,9.000000000000e-01,7.834577808724e-01,0.000000000000e+00
      11,9.000000000000e-01,7.834577808724e-01,1.000000000000e-01
      12,9.000000000000e-01,1.000000000000e+00,1.000000000000e-01
      13,8.500000000000e-01,1.000000000000e+00,0.000000000000e+00
      14,8.500000000000e-01,7.834577808724e-01,0.000000000000e+00
      15,8.500000000000e-01,7.834577808724e-01,1.000000000000e-01
      16,8.500000000000e-01,1.000000000000e+00,1.000000000000e-01
      17,8.000000000000e-01,1.000000000000e+00,0.000000000000e+00
      18,8.000000000000e-01,7.834577808724e-01,0.000000000000e+00
      19,8.000000000000e-01,7.834577808724e-01,1.000000000000e-01
      20,8.000000000000e-01,1.000000000000e+00,1.000000000000e-01
** ... 1702 like lines cut
*ELEMENT, TYPE=F3D8, ELSET=Eall
     1,     1,     2,     3,     4,     5,     6,     7,     8
     2,     5,     6,     7,     8,     9,    10,    11,    12
     3,     9,    10,    11,    12,    13,    14,    15,    16
     4,    13,    14,    15,    16,    17,    18,    19,    20
     5,    17,    18,    19,    20,    21,    22,    23,    24
     6,    21,    22,    23,    24,    25,    26,    27,    28
     7,    25,    26,    27,    28,    29,    30,    31,    32
     8,    29,    30,    31,    32,    33,    34,    35,    36
     9,    33,    34,    35,    36,    37,    38,    39,    40
    10,    37,    38,    39,    40,    41,    42,    43,    44
    11,    41,    42,    43,    44,    45,    46,    47,    48
    12,    45,    46,    47,    48,    49,    50,    51,    52
    13,    49,    50,    51,    52,    53,    54,    55,    56
    14,    53,    54,    55,    56,    57,    58,    59,    60
    15,    57,    58,    59,    60,    61,    62,    63,    64
    16,    61,    62,    63,    64,    65,    66,    67,    68
    17,    65,    66,    67,    68,    69,    70,    71,    72
    18,    69,    70,    71,    72,    73,    74,    75,    76
    19,    73,    74,    75,    76,    77,    78,    79,    80
    20,    77,    78,    79,    80,    81,    82,    83,    84
** ... 780 like lines cut
** Names based on inf
*NSET,NSET=Ninf 
1, 
4, 
5, 
8, 
9, 
12, 
13, 
16, 
17, 
20, 
21, 
24, 
25, 
28, 
29, 
32, 
33, 
36, 
37, 
40, 
** ... 60 like lines cut
** Names based on wall
*NSET,NSET=Nwall 
841, 
842, 
1683, 
1684, 
1685, 
1686, 
1687, 
1688, 
1689, 
1690, 
1691, 
1692, 
1693, 
1694, 
1695, 
1696, 
1697, 
1698, 
1699, 
1700, 
** ... 22 like lines cut
** Names based on sym
*NSET,NSET=Nsym 
843, 
844, 
845, 
846, 
847, 
848, 
849, 
850, 
851, 
852, 
853, 
854, 
855, 
856, 
857, 
858, 
859, 
860, 
861, 
862, 
** ... 18 like lines cut
** Names based on out
*NSET,NSET=Nout 
884, 
885, 
963, 
964, 
1003, 
1004, 
1043, 
1044, 
1083, 
1084, 
1123, 
1124, 
1163, 
1164, 
1203, 
1204, 
1243, 
1244, 
1283, 
1284, 
** ... 18 like lines cut
** Names based on in
*NSET,NSET=Nin 
81, 
82, 
83, 
84, 
125, 
126, 
167, 
168, 
209, 
210, 
251, 
252, 
293, 
294, 
335, 
336, 
377, 
378, 
419, 
420, 
** ... 22 like lines cut
** Surfaces based on dum
*SURFACE, NAME=Swall
800, S4
781, S4
782, S4
783, S4
784, S4
785, S4
786, S4
787, S4
788, S4
789, S4
790, S4
791, S4
792, S4
793, S4
794, S4
795, S4
796, S4
797, S4
798, S4
799, S4
*MATERIAL,NAME=WATER
*DENSITY
1.
*FLUID CONSTANTS
1.,1.
*CONDUCTIVITY
0.125
*SOLID SECTION,ELSET=Eall,MATERIAL=WATER
*INITIAL CONDITIONS,TYPE=PRESSURE
Nall,1.
*INITIAL CONDITIONS,TYPE=FLUID VELOCITY
Nall,1,100.
Nall,2,0.
Nall,3,0.
*INITIAL CONDITIONS,TYPE=TEMPERATURE
Nall,0.
*STEP,INCF=50000
*CFD,STEADY STATE,FEM
*BOUNDARY
Nin,1,1,100.
Nin,2,2,0.
Nin,11,11,0.
Nwall,1,2,0.
Nwall,11,11,1.
Nall,8,8,1.
Nall,3,3,0.
Nsym,2,2,0.
Nsym,11,11,0.
Ninf,1,1,100.
Ninf,2,2,0.
Ninf,11,11,0.
*NODE FILE,FREQUENCYF=5000
VF,TSF
*EL FILE,FREQUENCYF=5000
SF,HFLF
*FACE PRINT,SURFACE=Swall,FREQUENCYF=5000
DRAG
*END STEP
