** m, kg, s
** dyn_visc=kin_visc*rho
** cp=R/(1-1/kappa)
**
*NODE, NSET=Nall
       1,-9.994603754036e-01,3.408494266859e+00,0.000000000000e+00
       2,-1.207216519676e+00,3.044354159784e+00,0.000000000000e+00
       3,-7.780650978287e-01,3.053324186469e+00,0.000000000000e+00
       4,-1.096762500000e+00,2.688900000000e+00,0.000000000000e+00
       5,-2.816217216549e-01,3.070628169290e+00,0.000000000000e+00
       6,-5.990750000000e-01,2.688900000000e+00,0.000000000000e+00
       7,1.187436119136e-01,3.883322126420e+00,0.000000000000e+00
       8,-1.357711413177e-01,3.723117239637e+00,0.000000000000e+00
       9,1.285242875108e-01,3.539565597143e+00,0.000000000000e+00
      10,1.172985822791e-01,5.340148920974e+00,0.000000000000e+00
      11,1.256599987009e-01,5.355320999763e+00,0.000000000000e+00
      12,1.120000000000e-01,5.355390000000e+00,0.000000000000e+00
      13,1.487544721175e+00,5.089391415978e+00,0.000000000000e+00
      14,1.202909688725e+00,5.094699180920e+00,0.000000000000e+00
      15,1.331632166155e+00,4.838182298699e+00,0.000000000000e+00
      16,5.813359056226e-01,3.022481009869e+00,0.000000000000e+00
      17,3.963000000000e-01,2.688900000000e+00,0.000000000000e+00
      18,8.939875000000e-01,2.688900000000e+00,0.000000000000e+00
      19,-1.293265584634e+00,6.444170033391e+00,0.000000000000e+00
      20,-1.195348222809e+00,6.894635185141e+00,0.000000000000e+00
** ... 2710 like lines cut
*ELEMENT, TYPE=F3D6, ELSET=Eall
     1,     1,     2,     3,  1366,  1367,  1368
     2,     2,     4,     3,  1367,  1369,  1368
     3,     5,     3,     6,  1370,  1368,  1371
     4,     7,     8,     9,  1372,  1373,  1374
     5,    10,    11,    12,  1375,  1376,  1377
     6,    13,    14,    15,  1378,  1379,  1380
     7,    16,    17,    18,  1381,  1382,  1383
     8,    19,    20,    21,  1384,  1385,  1386
     9,    22,    23,    24,  1387,  1388,  1389
    10,    25,    26,    27,  1390,  1391,  1392
    11,    28,    25,    29,  1393,  1390,  1394
    12,     3,     4,     6,  1368,  1369,  1371
    13,    30,    31,    32,  1395,  1396,  1397
    14,    33,    34,    35,  1398,  1399,  1400
    15,    36,    34,    33,  1401,  1399,  1398
    16,    37,    38,    39,  1402,  1403,  1404
    17,    40,    41,    42,  1405,  1406,  1407
    18,    43,    33,    35,  1408,  1398,  1400
    19,    44,    45,    46,  1409,  1410,  1411
    20,    47,    48,    49,  1412,  1413,  1414
** ... 2572 like lines cut
** Names based on in
*NSET,NSET=Nin 
21, 
258, 
338, 
366, 
367, 
510, 
531, 
1386, 
1623, 
1703, 
1731, 
1732, 
1875, 
1896, 
** Names based on out
*NSET,NSET=Nout 
54, 
55, 
61, 
62, 
317, 
379, 
380, 
1419, 
1420, 
1426, 
1427, 
1682, 
1744, 
1745, 
** Names based on wall
*NSET,NSET=Nwall 
11, 
12, 
31, 
32, 
41, 
42, 
48, 
49, 
51, 
52, 
77, 
78, 
81, 
82, 
108, 
116, 
117, 
119, 
120, 
125, 
** ... 192 like lines cut
** Names based on sliding
*NSET,NSET=Nsliding 
4, 
6, 
17, 
18, 
26, 
27, 
34, 
35, 
68, 
79, 
182, 
212, 
213, 
359, 
529, 
550, 
618, 
639, 
1369, 
1371, 
** ... 16 like lines cut
** Surfaces based on profil
*SURFACE, NAME=Sprofil
5, S4
1415, S4
1405, S4
13, S4
2505, S4
2477, S4
17, S4
2091, S4
20, S4
2453, S4
275, S4
21, S4
1413, S4
2465, S4
31, S4
1481, S4
1605, S4
33, S4
1060, S4
1833, S4
** ... 86 like lines cut
** Surfaces based on wall
*SURFACE, NAME=Swall
12, S4
261, S4
32, S4
7, S4
291, S4
401, S4
10, S4
453, S4
356, S4
14, S4
333, S4
73, S4
146, S4
283, S4
343, S4
84, S4
*MATERIAL,NAME=AIR
*CONDUCTIVITY
26.3
*FLUID CONSTANTS
1004.85,1.786e-5,288.
*SPECIFIC GAS CONSTANT
287.1
*SOLID SECTION,ELSET=Eall,MATERIAL=AIR
*PHYSICAL CONSTANTS,ABSOLUTE ZERO=0.
*INITIAL CONDITIONS,TYPE=FLUID VELOCITY
Nall,1,248.
Nall,2,0.
Nall,3,0.
*INITIAL CONDITIONS,TYPE=PRESSURE
Nall,1.e5
*INITIAL CONDITIONS,TYPE=TEMPERATURE
Nall,288.
**
*STEP,INCF=100000,SHOCK SMOOTHING=0.01
***STEP,INCF=100000,SHOCK SMOOTHING=0.03
*CFD,COMPRESSIBLE,FEM,STEADY STATE
1.e10,1.e10
***DFLUX
**Sprofil,S,0.
**Swall,S,0.
*DFLUX
** DFlux based on dum
12, S4, 0.000000e+00
261, S4, 0.000000e+00
32, S4, 0.000000e+00
5, S4, 0.000000e+00
1415, S4, 0.000000e+00
1405, S4, 0.000000e+00
7, S4, 0.000000e+00
291, S4, 0.000000e+00
401, S4, 0.000000e+00
10, S4, 0.000000e+00
453, S4, 0.000000e+00
356, S4, 0.000000e+00
13, S4, 0.000000e+00
2505, S4, 0.000000e+00
2477, S4, 0.000000e+00
14, S4, 0.000000e+00
333, S4, 0.000000e+00
73, S4, 0.000000e+00
17, S4, 0.000000e+00
2091, S4, 0.000000e+00
** ... 102 like lines cut
*BOUNDARY
Nall,3,3,0.
Nin,11,11,288.
Nin,1,1,248.
Nin,2,2,0.
Nout,8,8,1.e5
Nwall,1,3,0.
Nsliding,2,2,0.
*NODE FILE,FREQUENCYF=1000
VF,PSF,TSF,TTF,MACH
*END STEP
