**Buckling Analysis
**Mixed types of elements (monolitic mesh)


*INCLUDE, INPUT=mixed_extruded_mesh_OUT.inp



*MATERIAL,NAME=Steel
*ELASTIC
2e11,0.3
*DENSITY
7850

** "SOLID SECTION" IS TO APPLY MATERIAL TO BODY ELSETS
*SOLID SECTION,MATERIAL=Steel,ELSET=C3D15
*SOLID SECTION,MATERIAL=Steel,ELSET=C3D20

** THIS CARD IS TO FIX THE END OF THE BEAM

*BOUNDARY
fixed,1,3,0

** THESE CARDS IS TO DEFINE MODAL CALCULATION AND OUTPUT
** NUMBER OF FORMS = 3

*STEP
*BUCKLE
3

*CLOAD
4,3,-0.75e6
6,3,-0.75e6

*NODE FILE
U
*END STEP

