**Concentrated Force (1)
**CONCENTRATED FORCE VIA DISTRIBUTING COUPLING 
**<img src="tbarcf.png">

*INCLUDE, INPUT=mixed_extruded_mesh_OUT.inp



** INPUT FOR ELASTIC MATERIAL
** SI UNITS ARE USED

*MATERIAL,NAME=Steel
*ELASTIC
2e11,0.3
*DENSITY
7850

** "SOLID SECTION" IS TO APPLY MATERIAL TO BODY ELSETS

*SOLID SECTION,MATERIAL=Steel,ELSET=C3D15
*SOLID SECTION,MATERIAL=Steel,ELSET=C3D20

*NODE
100002,0,0,0

*ELEMENT,TYPE=DCOUP3D
100001,100002

*ELSET,ELSET=EDC
100001

*DISTRIBUTING COUPLING,ELSET=EDC
load,1


** THESE CARDS IS TO DEFINE STATIC CALCULATION AND OUTPUT

*STEP
*STATIC

** FIX THE END OF THE BEAM
*BOUNDARY
ux,1,1,0
uy,2,2,0
fixed,3,3,0

**APPLY CONCENTRATED FORCE VIA DISTRIBUTING COUPLING REF NODE
*CLOAD
100002,2,3e4

** OUTPUT
*NODE FILE
U
*EL FILE
S
*END STEP

