**Concentrated Force (2)
** Concetrated force with *CLOAD card


*INCLUDE, INPUT=mixed_extruded_mesh_OUT.inp



** INPUT FOR ELASTIC MATERIAL
** SI UNITS ARE USED

*MATERIAL,NAME=Steel
*ELASTIC
2e11,0.3
*DENSITY
7850

** "SOLID SECTION" IS TO APPLY MATERIAL TO BODY ELSETS

*SOLID SECTION,MATERIAL=Steel,ELSET=C3D15
*SOLID SECTION,MATERIAL=Steel,ELSET=C3D20



** THESE CARDS IS TO DEFINE STATIC CALCULATION AND OUTPUT

*STEP
*STATIC

** FIX THE END OF THE BEAM
*BOUNDARY
ux,1,1,0
uy,2,2,0
fixed,3,3,0

**APPLY CONCENTRATED FORCE ON GROUP 'load' WITH 148 NODES
** VALUE 3e4/148=202.7 PER NODE

*CLOAD
load,2,202.7

** OUTPUT
*NODE FILE
U
*EL FILE
S
*END STEP

