**Modal analysis 
** Extruded monolitic mesh
**Mixed types of elements


*INCLUDE, INPUT=mixed_extruded_mesh_OUT.inp



** INPUT FOR ELASTIC MATERIAL
** SI UNITS ARE USED

*MATERIAL,NAME=Steel
*ELASTIC
2e11,0.3
*DENSITY
7850

** "SOLID SECTION" IS TO APPLY MATERIAL TO BODY ELSETS
*SOLID SECTION,MATERIAL=Steel,ELSET=C3D15
*SOLID SECTION,MATERIAL=Steel,ELSET=C3D20

** THIS CARD IS TO FIX THE END OF THE BEAM

*BOUNDARY
fixed,1,3,0

** THESE CARDS IS TO DEFINE MODAL CALCULATION AND OUTPUT
** NUMBER OF FORMS = 3

*STEP
*FREQUENCY
3
*NODE FILE
U
*EL FILE
S
*END STEP

