** Static With Pressure 
**Using *DLOAD card for pressure

*INCLUDE, INPUT=mixed_extruded_mesh_OUT.inp

** INPUT FOR ELASTIC MATERIAL
** SI UNITS ARE USED

*MATERIAL,NAME=Steel
*ELASTIC
2e11,0.3
*DENSITY
7850

** "SOLID SECTION" IS TO APPLY MATERIAL TO BODY ELSETS

*SOLID SECTION,MATERIAL=Steel,ELSET=C3D15
*SOLID SECTION,MATERIAL=Steel,ELSET=C3D20

**This sample is for rigid body used to apply concentrated
**moment to the section (nodal set 'load')
** extra dummy node #1000002 is determined  




** THESE CARDS IS TO DEFINE STATIC CALCULATION AND OUTPUT

*STEP
*STATIC

** FIX THE END OF THE BEAM
*BOUNDARY
fixline1,1,3,0
fixline2,1,2,0

*AMPLITUDE,NAME=pressurevalue
0.,0.,1.0,5e5


**APPLY PRESSURE
*DLOAD,AMPLITUDE=pressurevalue
*INCLUDE, INPUT=pressure.dlo

** OUTPUT
*NODE FILE
U
*EL FILE
S
*END STEP

