**Pin
**Pinned connection of two links with contact
**<img src="misestruss.jpg">

*NODE, NSET=Nall
       1,1.000000000000e+00,-8.726203000000e-03,4.999238000000e-01
       2,1.000000000000e+00,-1.000720000000e+01,3.253998000000e-01
       3,1.000000000000e+00,-1.099396000000e+01,-4.419384000000e-01
       4,1.000000000000e+00,-1.100269000000e+01,5.798545000000e-02
       5,1.000000000000e+00,-1.023099000000e+01,-1.178735000000e+00
       6,1.000000000000e+00,-1.026589000000e+01,8.209605000000e-01
       7,1.000000000000e+00,2.674143000000e-01,-9.954846000000e-01
       8,1.000000000000e+00,2.325095000000e-01,1.004211000000e+00
       9,1.000000000000e+00,1.004211000000e+00,-2.325095000000e-01
      10,1.000000000000e+00,9.954846000000e-01,2.674143000000e-01
      11,5.000000000000e-01,-8.726203000000e-03,4.999238000000e-01
      12,5.000000000000e-01,-1.000720000000e+01,3.253998000000e-01
      13,5.000000000000e-01,-1.099396000000e+01,-4.419384000000e-01
      14,5.000000000000e-01,-1.100269000000e+01,5.798545000000e-02
      15,5.000000000000e-01,-1.023099000000e+01,-1.178735000000e+00
      16,5.000000000000e-01,-1.026589000000e+01,8.209605000000e-01
      17,5.000000000000e-01,2.674143000000e-01,-9.954846000000e-01
      18,5.000000000000e-01,2.325095000000e-01,1.004211000000e+00
      19,5.000000000000e-01,1.004211000000e+00,-2.325095000000e-01
      20,5.000000000000e-01,9.954846000000e-01,2.674143000000e-01
** ... 14725 like lines cut
*ELEMENT, TYPE=C3D10, ELSET=Eall
  2367,   591,  1153,  1162,   598,  4320,  4321,  4319,  2522,  4323,  4322 
  2368,   637,  1051,   191,   817,  4324,  4326,  2794,  4325,  4327,  3515 
  2369,   206,  1063,   205,   824,  4328,  4329,  1408,  3528,  4330,  3529 
  2370,   593,   542,   560,  1169,  2502,  2546,  2545,  4331,  4333,  4332 
  2371,  1170,  1169,  1126,   955,  4335,  4337,  4334,  4336,  4339,  4338 
  2372,   519,   574,   518,  1137,  2442,  2441,  2265,  4340,  4342,  4341 
  2373,  1089,   459,   302,   410,  4344,  2067,  4343,  4345,  2090,  1914 
  2374,   889,  1115,   815,  1044,  4346,  4348,  3775,  4347,  4350,  4349 
  2375,   865,   759,   866,  1093,  3708,  3710,  3712,  4351,  4353,  4352 
  2376,   706,   754,   686,   256,  4354,  4355,  3127,  3128,  3342,  3013 
  2377,  1076,   372,   398,   289,  4357,  1881,  4356,  4358,  1754,  1882 
  2378,  1139,  1140,   446,   521,  4360,  4362,  4359,  4361,  4363,  2270 
  2379,   884,  1137,   946,   963,  4364,  4365,  3976,  4026,  4366,  4070 
  2380,   838,   732,  1078,   731,  3627,  4368,  4367,  3626,  3277,  4369 
  2381,   898,   823,  1061,   878,  3816,  4371,  4370,  3860,  3744,  4372 
  2382,   368,  1045,   309,   471,  4373,  4374,  2114,  2130,  4375,  2103 
  2383,  1108,   483,  1144,  1173,  4377,  4379,  4376,  4378,  4381,  4380 
  2384,   237,  1082,   238,   736,  4382,  4383,  1442,  3287,  4384,  3288 
  2385,  1108,   930,   929,  1173,  4386,  3931,  4385,  4378,  4388,  4387 
  2386,  1061,  1062,  1127,   878,  4390,  4391,  4389,  4372,  4393,  4392 
** ... 7572 like lines cut
** Names based on load1
*NSET,NSET=load1 
6, 
8, 
16, 
18, 
30, 
31, 
32, 
33, 
34, 
35, 
36, 
37, 
38, 
39, 
40, 
41, 
42, 
43, 
44, 
45, 
** ... 401 like lines cut
** Names based on pin
*NSET,NSET=pin 
14276, 
14277, 
14278, 
14279, 
14280, 
14281, 
14282, 
14283, 
14284, 
14285, 
14286, 
14287, 
14288, 
14289, 
14290, 
14291, 
14292, 
14293, 
14294, 
14295, 
** ... 218 like lines cut
** Names based on face1
*NSET,NSET=face1 
11, 
12, 
13, 
14, 
15, 
16, 
17, 
18, 
19, 
20, 
146, 
147, 
148, 
149, 
150, 
151, 
152, 
153, 
154, 
155, 
** ... 1665 like lines cut
** Names based on Solid_2
*ELSET,ELSET=Solid_2 
12300, 
12301, 
12302, 
12303, 
12304, 
12305, 
12306, 
12307, 
12308, 
12309, 
12310, 
12311, 
12312, 
12313, 
12314, 
12315, 
12316, 
12317, 
12318, 
12319, 
** ... 195 like lines cut
** Names based on Solid_1
*ELSET,ELSET=Solid_1 
2367, 
2368, 
2369, 
2370, 
2371, 
2372, 
2373, 
2374, 
2375, 
2376, 
2377, 
2378, 
2379, 
2380, 
2381, 
2382, 
2383, 
2384, 
2385, 
2386, 
** ... 3651 like lines cut
** Names based on fix2
*NSET,NSET=fix2 
7115, 
7125, 
7234, 
7235, 
7236, 
7237, 
7238, 
7239, 
7240, 
7241, 
7242, 
7243, 
7244, 
7245, 
7271, 
7272, 
7273, 
7274, 
7275, 
7276, 
** ... 106 like lines cut
** Names based on hole1
*NSET,NSET=hole1 
1, 
11, 
133, 
134, 
135, 
136, 
137, 
138, 
139, 
140, 
141, 
142, 
143, 
144, 
145, 
146, 
147, 
148, 
149, 
150, 
** ... 106 like lines cut
** Names based on fix1
*NSET,NSET=fix1 
2, 
12, 
121, 
122, 
123, 
124, 
125, 
126, 
127, 
128, 
129, 
130, 
131, 
132, 
158, 
159, 
160, 
161, 
162, 
163, 
** ... 106 like lines cut
** Names based on hole2
*NSET,NSET=hole2 
7114, 
7124, 
7246, 
7247, 
7248, 
7249, 
7250, 
7251, 
7252, 
7253, 
7254, 
7255, 
7256, 
7257, 
7258, 
7259, 
7260, 
7261, 
7262, 
7263, 
** ... 106 like lines cut
** Names based on load2
*NSET,NSET=load2 
7118, 
7120, 
7128, 
7130, 
7184, 
7185, 
7186, 
7187, 
7188, 
7189, 
7190, 
7191, 
7192, 
7193, 
7194, 
7195, 
7196, 
7197, 
7198, 
7199, 
** ... 405 like lines cut
** Names based on face2
*NSET,NSET=face2 
7114, 
7115, 
7116, 
7117, 
7118, 
7119, 
7120, 
7121, 
7122, 
7123, 
7134, 
7135, 
7136, 
7137, 
7138, 
7139, 
7140, 
7141, 
7142, 
7143, 
** ... 1673 like lines cut
** Names based on Solid_3
*ELSET,ELSET=Solid_3 
8404, 
8405, 
8406, 
8407, 
8408, 
8409, 
8410, 
8411, 
8412, 
8413, 
8414, 
8415, 
8416, 
8417, 
8418, 
8419, 
8420, 
8421, 
8422, 
8423, 
** ... 3686 like lines cut
** Names based on C3D10
*ELSET,ELSET=C3D10 
2367, 
2368, 
2369, 
2370, 
2371, 
2372, 
2373, 
2374, 
2375, 
2376, 
2377, 
2378, 
2379, 
2380, 
2381, 
2382, 
2383, 
2384, 
2385, 
2386, 
** ... 7572 like lines cut
** Surfaces based on pin
*SURFACE, NAME=pin
12339, S2
12374, S4
12306, S3
12389, S1
12454, S3
12479, S1
12475, S3
12337, S4
12386, S1
12390, S3
12399, S4
12434, S4
12375, S4
12340, S3
12380, S4
12419, S3
12344, S2
12368, S4
12504, S2
12360, S4
** ... 86 like lines cut
** Surfaces based on fix2
*SURFACE, NAME=fix2
11873, S2
11852, S1
8559, S4
11857, S1
11861, S1
11862, S1
11709, S1
11868, S1
11351, S2
11534, S3
11875, S1
11876, S1
11878, S4
11932, S3
11889, S3
11082, S4
11897, S4
11893, S1
11898, S4
11864, S2
** ... 30 like lines cut
** Surfaces based on C3D10
*SURFACE, NAME=C3D10
** Surfaces based on Solid_1
*SURFACE, NAME=Solid_1
** Surfaces based on load1
*SURFACE, NAME=load1
5074, S4
2403, S3
3509, S4
4278, S3
4830, S3
3049, S2
3646, S1
2775, S2
4565, S4
3435, S4
4456, S4
4280, S3
3091, S1
2421, S1
2435, S3
4448, S2
3432, S3
4832, S2
3287, S4
4969, S2
** ... 146 like lines cut
** Surfaces based on face1
*SURFACE, NAME=face1
3107, S3
4770, S2
4288, S2
5809, S2
3029, S4
2947, S1
5357, S3
4754, S3
4867, S2
3564, S4
5790, S1
3088, S1
5440, S2
3161, S1
5443, S3
5408, S2
3509, S2
3597, S3
2600, S2
5259, S2
** ... 756 like lines cut
** Surfaces based on load2
*SURFACE, NAME=load2
11678, S2
11695, S2
10139, S3
9227, S1
11242, S4
9721, S3
10873, S2
9729, S2
10072, S2
8947, S3
10956, S4
11813, S3
10556, S3
10923, S3
9771, S2
10669, S2
11773, S1
10208, S3
11652, S4
8504, S4
** ... 148 like lines cut
** Surfaces based on hole2
*SURFACE, NAME=hole2
11849, S1
11850, S3
8405, S4
11854, S1
10423, S2
9868, S3
11928, S4
10726, S3
11935, S2
11938, S1
11939, S4
10715, S2
11944, S1
11945, S1
11948, S4
11950, S1
11953, S2
11955, S1
11959, S1
9783, S1
** ... 30 like lines cut
** Surfaces based on Solid_2
*SURFACE, NAME=Solid_2
** Surfaces based on all
*SURFACE, NAME=all
5047, S3
5801, S4
5934, S3
3559, S3
4516, S2
3835, S3
5805, S3
5804, S1
3387, S4
5825, S3
5772, S2
5772, S3
4118, S3
4118, S4
2539, S4
2536, S2
4552, S2
4552, S1
4841, S4
4841, S1
** ... 4296 like lines cut
** Surfaces based on fix1
*SURFACE, NAME=fix1
3835, S3
5804, S1
2469, S2
5808, S1
5812, S1
5813, S1
5099, S4
5820, S1
5824, S4
5822, S1
5827, S1
5844, S4
4724, S1
5866, S2
5841, S3
5836, S1
5846, S1
4771, S3
5815, S2
5851, S1
** ... 30 like lines cut
** Surfaces based on Solid_3
*SURFACE, NAME=Solid_3
** Surfaces based on hole1
*SURFACE, NAME=hole1
5047, S3
5934, S3
5806, S1
5807, S4
5872, S1
5587, S3
6030, S3
5877, S1
5998, S2
5752, S1
5888, S3
5892, S1
5897, S1
5898, S1
5900, S1
5988, S3
6036, S4
5983, S4
5911, S1
5963, S3
** ... 30 like lines cut
** Surfaces based on face2
*SURFACE, NAME=face2
9316, S4
9085, S3
11848, S1
11853, S2
9744, S4
11851, S1
8449, S3
11560, S3
11552, S2
10477, S4
9819, S1
10472, S1
9732, S1
11678, S1
8957, S1
11556, S1
9301, S2
9916, S2
8872, S3
10552, S4
** ... 760 like lines cut

*MATERIAL,NAME=steel
*ELASTIC
2.9000E+07,0.28
*DENSITY
7.3500E-04
*EXPANSION
7.2280E-06

*SOLID SECTION,MATERIAL=steel,ELSET=Eall

*BOUNDARY
fix1,1,1,0
fix1,3,3,0

*BOUNDARY
fix2,1,1,0
fix2,3,3,0

*TRANSFORM,NSET=fix1,TYPE=C
7.5000E-01,-9.9985E+00,-1.7489E-01,1.7500E+00,-9.9985E+00,-1.7489E-01
 
*TRANSFORM,NSET=fix2,TYPE=C
2.5000E-01,9.9985E+00,-1.7416E-01,1.2500E+00,9.9985E+00,-1.7416E-01
 
*CONTACT PAIR,INTERACTION=SI1,TYPE=SURFACE TO SURFACE
face2,face1
*SURFACE INTERACTION,NAME=SI1
*SURFACE BEHAVIOR,PRESSURE-OVERCLOSURE=Linear
1450000000,0

*CONTACT PAIR,INTERACTION=SI2,TYPE=SURFACE TO SURFACE
pin,hole1
*SURFACE INTERACTION,NAME=SI2
*SURFACE BEHAVIOR,PRESSURE-OVERCLOSURE=Linear
1450000000,0

*FRICTION
0.2,145000000

*CONTACT PAIR,INTERACTION=SI3,TYPE=SURFACE TO SURFACE
pin,hole2
*SURFACE INTERACTION,NAME=SI3
*SURFACE BEHAVIOR,PRESSURE-OVERCLOSURE=Linear
1450000000,0

*FRICTION
0.2,145000000



*STEP,NLGEOM,INC=100
*STATIC
0.1,1
*CLOAD
load1,3,-1.1876E+01

*CLOAD
load2,3,-1.1765E+01

  *NODE FILE 
U,
  *EL FILE
S,
*NODE PRINT,NSET=fix1
RF
*NODE PRINT,NSET=fix2
RF
*CONTACT OUTPUT
CDIS,CSTR 
*END STEP
