**Stability of slope 
**Mohr–Coulomb Soil Model
**https://youtu.be/qo3vOXnDeSs
**
**<img src="slope.png">

*NODE, NSET=Nall
       1,0.000000000000e+00,0.000000000000e+00,1.000000000000e+00
       2,0.000000000000e+00,5.000000000000e+00,1.000000000000e+00
       3,1.000000000000e+01,5.000000000000e+00,1.000000000000e+00
       4,3.000000000000e+01,1.500000000000e+01,1.000000000000e+00
       5,4.000000000000e+01,1.500000000000e+01,1.000000000000e+00
       6,4.000000000000e+01,0.000000000000e+00,1.000000000000e+00
       7,0.000000000000e+00,1.000000000000e+00,1.000000000000e+00
       8,0.000000000000e+00,2.000000000000e+00,1.000000000000e+00
       9,0.000000000000e+00,3.000000000000e+00,1.000000000000e+00
      10,0.000000000000e+00,4.000000000000e+00,1.000000000000e+00
      11,1.000000000000e+00,5.000000000000e+00,1.000000000000e+00
      12,2.000000000000e+00,5.000000000000e+00,1.000000000000e+00
      13,3.000000000000e+00,5.000000000000e+00,1.000000000000e+00
      14,4.000000000000e+00,5.000000000000e+00,1.000000000000e+00
      15,5.000000000000e+00,5.000000000000e+00,1.000000000000e+00
      16,6.000000000000e+00,5.000000000000e+00,1.000000000000e+00
      17,7.000000000000e+00,5.000000000000e+00,1.000000000000e+00
      18,8.000000000000e+00,5.000000000000e+00,1.000000000000e+00
      19,9.000000000000e+00,5.000000000000e+00,1.000000000000e+00
      20,1.086957000000e+01,5.434783000000e+00,1.000000000000e+00
** ... 6180 like lines cut
*ELEMENT, TYPE=C3D15, ELSET=Eall
  2048,   886,   872,   879,   998,  1000,   999,  3756,  3755,  3754,
        2098,  2099,  2100,  5410,  5412,  5411
*ELEMENT, TYPE=C3D20, ELSET=Eall
  2049,   886,   879,   891,   892,   998,   999,  1002,  1001,  3754,  3759,
        3758,  3757,  2100,  2101,  2102,  2103,  5410,  5411,  5414,  5413
  2050,     9,   105,   106,     8,   903,  1004,  1003,   902,  3762,  3761,
        3760,  1798,  2104,  2105,  2106,  1793,  2003,  5416,  5415,  2002
  2051,     8,   106,   107,     7,   902,  1003,  1005,   901,  3760,  3764,
        3763,  1797,  2106,  2107,  2108,  1792,  2002,  5415,  5417,  2001
  2052,   103,   107,   108,   102,   997,  1005,  1006,   996,  3767,  3766,
        3765,  1999,  2109,  2110,  2111,  1959,  2097,  5417,  5418,  2096
  2053,   102,   108,   109,   101,   996,  1006,  1007,   995,  3765,  3769,
        3768,  1998,  2111,  2112,  2113,  1958,  2096,  5418,  5419,  2095
  2054,   101,   109,   110,   100,   995,  1007,  1008,   994,  3768,  3771,
        3770,  1997,  2113,  2114,  2115,  1957,  2095,  5419,  5420,  2094
  2055,   100,   110,   111,    99,   994,  1008,  1009,   993,  3770,  3773,
        3772,  1996,  2115,  2116,  2117,  1956,  2094,  5420,  5421,  2093
  2056,    99,   111,   112,    98,   993,  1009,  1010,   992,  3772,  3775,
        3774,  1995,  2117,  2118,  2119,  1955,  2093,  5421,  5422,  2092
  2057,    98,   112,   113,    97,   992,  1010,  1011,   991,  3774,  3777,
        3776,  1994,  2119,  2120,  2121,  1954,  2092,  5422,  5423,  2091
  2058,    97,   113,   114,    96,   991,  1011,  1012,   990,  3776,  3779,
        3778,  1993,  2121,  2122,  2123,  1953,  2091,  5423,  5424,  2090
** ... 62 like lines cut
*ELEMENT, TYPE=C3D15, ELSET=Eall
  2090,   707,   620,   551,  1044,  1046,  1045,  3844,  3843,  3842,
        2186,  2187,  2188,  5456,  5458,  5457
*ELEMENT, TYPE=C3D20, ELSET=Eall
  2091,    63,   146,   147,    62,   957,  1048,  1047,   956,  3847,  3846,
        3845,  1918,  2189,  2190,  2191,  1903,  2057,  5460,  5459,  2056
  2092,    62,   147,   148,    61,   956,  1047,  1049,   955,  3845,  3849,
        3848,  1917,  2191,  2192,  2193,  1902,  2056,  5459,  5461,  2055
  2093,    61,   148,   149,    60,   955,  1049,  1050,   954,  3848,  3851,
        3850,  1916,  2193,  2194,  2195,  1901,  2055,  5461,  5462,  2054
  2094,    60,   149,   150,    59,   954,  1050,  1051,   953,  3850,  3853,
        3852,  1915,  2195,  2196,  2197,  1900,  2054,  5462,  5463,  2053
  2095,    59,   150,   151,    58,   953,  1051,  1052,   952,  3852,  3855,
        3854,  1914,  2197,  2198,  2199,  1899,  2053,  5463,  5464,  2052
  2096,    58,   151,   152,    57,   952,  1052,  1053,   951,  3854,  3857,
        3856,  1913,  2199,  2200,  2201,  1898,  2052,  5464,  5465,  2051
  2097,    57,   152,   153,    56,   951,  1053,  1054,   950,  3856,  3859,
        3858,  1912,  2201,  2202,  2203,  1897,  2051,  5465,  5466,  2050
  2098,    56,   153,   154,    55,   950,  1054,  1055,   949,  3858,  3861,
        3860,  1911,  2203,  2204,  2205,  1896,  2050,  5466,  5467,  2049
  2099,    55,   154,   155,    54,   949,  1055,  1056,   948,  3860,  3863,
        3862,  1910,  2205,  2206,  2207,  1895,  2049,  5467,  5468,  2048
  2100,    54,   155,   156,    53,   948,  1056,  1057,   947,  3862,  3865,
        3864,  1909,  2207,  2208,  2209,  1894,  2048,  5468,  5469,  2047
** ... 250 like lines cut
*ELEMENT, TYPE=C3D15, ELSET=Eall
  2226,   821,   822,   846,  1192,  1194,  1193,  4125,  4124,  4123,
        2467,  2468,  2469,  5604,  5606,  5605
*ELEMENT, TYPE=C3D20, ELSET=Eall
  2227,   286,   287,   104,   199,  1195,  1198,  1197,  1196,  4129,  4128,
        4127,  4126,  2470,  2471,  2472,  2473,  5607,  5610,  5609,  5608
  2228,   109,   203,   288,   110,  1007,  1109,  1199,  1008,  3961,  4131,
        4130,  3771,  2306,  2474,  2475,  2114,  5419,  5521,  5611,  5420
  2229,   147,   238,   289,   148,  1047,  1144,  1200,  1049,  4031,  4133,
        4132,  3849,  2377,  2476,  2477,  2192,  5459,  5556,  5612,  5461
  2230,   148,   289,   241,   149,  1049,  1200,  1147,  1050,  4132,  4134,
        4036,  3851,  2477,  2478,  2378,  2194,  5461,  5612,  5559,  5462
  2231,   160,   249,   290,   161,  1064,  1155,  1201,  1066,  4052,  4136,
        4135,  3878,  2398,  2479,  2480,  2221,  5476,  5567,  5613,  5478
  2232,   161,   290,   252,   162,  1066,  1201,  1158,  1067,  4135,  4137,
        4057,  3880,  2480,  2481,  2399,  2223,  5478,  5613,  5570,  5479
  2233,   171,   256,   260,   172,  1076,  1162,  1166,  1077,  4064,  4138,
        4072,  3899,  2410,  2482,  2414,  2242,  5488,  5574,  5578,  5489
  2234,   144,   237,   239,   145,  1042,  1143,  1145,  1043,  4028,  4140,
        4139,  3841,  2373,  2483,  2484,  2184,  5454,  5555,  5557,  5455
  2235,   157,   248,   250,   158,  1058,  1154,  1156,  1059,  4049,  4142,
        4141,  3869,  2394,  2485,  2486,  2212,  5470,  5566,  5568,  5471
  2236,   248,   292,   291,   250,  1154,  1203,  1202,  1156,  4145,  4144,
        4143,  4142,  2487,  2488,  2489,  2485,  5566,  5615,  5614,  5568
** ... 6 like lines cut
*ELEMENT, TYPE=C3D15, ELSET=Eall
  2240,   839,   800,   801,  1208,  1210,  1209,  4155,  4154,  4153,
        2497,  2498,  2499,  5620,  5622,  5621
*ELEMENT, TYPE=C3D20, ELSET=Eall
  2241,   106,   105,   298,   202,  1003,  1004,  1211,  1108,  3761,  4157,
        4156,  3960,  2105,  2500,  2501,  2303,  5415,  5416,  5623,  5520
  2242,   110,   288,   205,   111,  1008,  1199,  1111,  1009,  4130,  4158,
        3965,  3773,  2475,  2502,  2307,  2116,  5420,  5611,  5523,  5421
  2243,   258,   300,   299,   257,  1164,  1213,  1212,  1163,  4161,  4160,
        4159,  4069,  2503,  2504,  2505,  2413,  5576,  5625,  5624,  5575
  2244,   260,   302,   301,   259,  1166,  1215,  1214,  1165,  4164,  4163,
        4162,  4071,  2506,  2507,  2508,  2415,  5578,  5627,  5626,  5577
  2245,   238,   304,   303,   289,  1144,  1217,  1216,  1200,  4167,  4166,
        4165,  4133,  2509,  2510,  2511,  2476,  5556,  5629,  5628,  5612
  2246,   202,   298,   305,   203,  1108,  1211,  1218,  1109,  4156,  4169,
        4168,  3962,  2501,  2512,  2513,  2305,  5520,  5623,  5630,  5521
  2247,   261,   307,   306,   262,  1167,  1220,  1219,  1168,  4172,  4171,
        4170,  4076,  2514,  2515,  2516,  2419,  5579,  5632,  5631,  5580
  2248,   207,   309,   308,   208,  1113,  1222,  1221,  1114,  4175,  4174,
        4173,  3971,  2517,  2518,  2519,  2314,  5525,  5634,  5633,  5526
  2249,   205,   311,   310,   204,  1111,  1224,  1223,  1110,  4178,  4177,
        4176,  3964,  2520,  2521,  2522,  2308,  5523,  5636,  5635,  5522
  2250,   204,   310,   312,   206,  1110,  1223,  1225,  1112,  4176,  4180,
        4179,  3967,  2522,  2523,  2524,  2310,  5522,  5635,  5637,  5524
** ... 76 like lines cut
*ELEMENT, TYPE=C3D15, ELSET=Eall
  2289,   624,   642,   679,  1265,  1267,  1266,  4260,  4259,  4258,
        2602,  2603,  2604,  5677,  5679,  5678
*ELEMENT, TYPE=C3D20, ELSET=Eall
  2290,   247,   349,   292,   248,  1153,  1268,  1203,  1154,  4262,  4261,
        4145,  4050,  2605,  2606,  2487,  2393,  5565,  5680,  5615,  5566
  2291,   254,   351,   350,   255,  1160,  1270,  1269,  1161,  4265,  4264,
        4263,  4063,  2607,  2608,  2609,  2406,  5572,  5682,  5681,  5573
  2292,   250,   291,   352,   249,  1156,  1202,  1271,  1155,  4143,  4267,
        4266,  4053,  2489,  2610,  2611,  2397,  5568,  5614,  5683,  5567
  2293,   290,   354,   353,   252,  1201,  1273,  1272,  1158,  4270,  4269,
        4268,  4137,  2612,  2613,  2614,  2481,  5613,  5685,  5684,  5570
  2294,   252,   353,   355,   251,  1158,  1272,  1274,  1157,  4268,  4272,
        4271,  4056,  2614,  2615,  2616,  2400,  5570,  5684,  5686,  5569
  2295,   253,   356,   351,   254,  1159,  1275,  1270,  1160,  4274,  4273,
        4265,  4061,  2617,  2618,  2607,  2404,  5571,  5687,  5682,  5572
  2296,   251,   355,   356,   253,  1157,  1274,  1275,  1159,  4271,  4275,
        4274,  4059,  2616,  2619,  2617,  2402,  5569,  5686,  5687,  5571
  2297,   624,   679,   733,   722,  1265,  1266,  1277,  1276,  4258,  4278,
        4277,  4276,  2604,  2620,  2621,  2622,  5677,  5678,  5689,  5688
*ELEMENT, TYPE=C3D15, ELSET=Eall
  2298,   348,   446,   246,  1264,  1278,  1152,  4280,  4279,  4256,
        2623,  2624,  2601,  5676,  5690,  5564
*ELEMENT, TYPE=C3D20, ELSET=Eall
  2299,   262,   306,   358,   263,  1168,  1219,  1279,  1169,  4170,  4282,
        4281,  4078,  2516,  2625,  2626,  2421,  5580,  5631,  5691,  5581
  2300,   259,   301,   307,   261,  1165,  1214,  1220,  1167,  4162,  4283,
        4172,  4074,  2508,  2627,  2514,  2417,  5577,  5626,  5632,  5579
  2301,   263,   358,   359,   264,  1169,  1279,  1280,  1170,  4281,  4285,
        4284,  4080,  2626,  2628,  2629,  2423,  5581,  5691,  5692,  5582
  2302,   264,   359,   360,   265,  1170,  1280,  1281,  1171,  4284,  4287,
        4286,  4082,  2629,  2630,  2631,  2425,  5582,  5692,  5693,  5583
  2303,   265,   360,   361,   266,  1171,  1281,  1282,  1172,  4286,  4289,
        4288,  4084,  2631,  2632,  2633,  2427,  5583,  5693,  5694,  5584
  2304,   266,   361,   362,   267,  1172,  1282,  1283,  1173,  4288,  4291,
        4290,  4086,  2633,  2634,  2635,  2429,  5584,  5694,  5695,  5585
  2305,   267,   362,   363,   268,  1173,  1283,  1284,  1174,  4290,  4293,
        4292,  4088,  2635,  2636,  2637,  2431,  5585,  5695,  5696,  5586
  2306,   268,   363,   364,   269,  1174,  1284,  1285,  1175,  4292,  4295,
        4294,  4090,  2637,  2638,  2639,  2433,  5586,  5696,  5697,  5587
  2307,   269,   364,   365,   270,  1175,  1285,  1286,  1176,  4294,  4297,
        4296,  4092,  2639,  2640,  2641,  2435,  5587,  5697,  5698,  5588
  2308,   270,   365,   366,   271,  1176,  1286,  1287,  1177,  4296,  4299,
        4298,  4094,  2641,  2642,  2643,  2437,  5588,  5698,  5699,  5589
** ... 38 like lines cut
*ELEMENT, TYPE=C3D15, ELSET=Eall
  2328,   485,   476,   477,  1308,  1310,  1309,  4341,  4340,  4339,
        2683,  2684,  2685,  5720,  5722,  5721
*ELEMENT, TYPE=C3D20, ELSET=Eall
  2329,   485,   477,   544,   527,  1308,  1309,  1312,  1311,  4339,  4344,
        4343,  4342,  2685,  2686,  2687,  2688,  5720,  5721,  5724,  5723
  2330,   300,   385,   384,   299,  1213,  1314,  1313,  1212,  4347,  4346,
        4345,  4160,  2689,  2690,  2691,  2504,  5625,  5726,  5725,  5624
*ELEMENT, TYPE=C3D15, ELSET=Eall
  2331,   871,   872,   885,  1315,  1000,  1316,  4350,  4349,  4348,
        2692,  2693,  2694,  5727,  5412,  5728
*ELEMENT, TYPE=C3D20, ELSET=Eall
  2332,   294,   387,   385,   300,  1206,  1317,  1314,  1213,  4353,  4352,
        4347,  4351,  2695,  2696,  2689,  2697,  5618,  5729,  5726,  5625
  2333,   292,   389,   388,   291,  1203,  1319,  1318,  1202,  4356,  4355,
        4354,  4144,  2698,  2699,  2700,  2488,  5615,  5731,  5730,  5614
  2334,   295,   390,   387,   294,  1207,  1320,  1317,  1206,  4358,  4357,
        4353,  4151,  2701,  2702,  2695,  2495,  5619,  5732,  5729,  5618
  2335,   885,   872,   886,   875,  1316,  1000,   998,  1321,  4349,  3756,
        4360,  4359,  2693,  2098,  2703,  2704,  5728,  5412,  5410,  5733
  2336,   378,   391,   381,   379,  1299,  1323,  1322,  1300,  4363,  4362,
        4361,  4325,  2705,  2706,  2707,  2668,  5711,  5735,  5734,  5712
  2337,   352,   393,   392,   354,  1271,  1325,  1324,  1273,  4366,  4365,
        4364,  4338,  2708,  2709,  2710,  2682,  5683,  5737,  5736,  5685
  2338,   344,   395,   394,   345,  1260,  1327,  1326,  1261,  4369,  4368,
        4367,  4250,  2711,  2712,  2713,  2593,  5672,  5739,  5738,  5673
  2339,   307,   397,   396,   306,  1220,  1329,  1328,  1219,  4372,  4371,
        4370,  4171,  2714,  2715,  2716,  2515,  5632,  5741,  5740,  5631
  2340,   313,   399,   398,   314,  1226,  1331,  1330,  1227,  4375,  4374,
        4373,  4184,  2717,  2718,  2719,  2527,  5638,  5743,  5742,  5639
  2341,   308,   400,   399,   313,  1221,  1332,  1331,  1226,  4377,  4376,
        4375,  4182,  2720,  2721,  2717,  2525,  5633,  5744,  5743,  5638
** ... 76 like lines cut
*ELEMENT, TYPE=C3D15, ELSET=Eall
  2380,   203,   305,   381,  1109,  1218,  1322,  4168,  4457,  4456,
        2513,  2800,  2801,  5521,  5630,  5734
*ELEMENT, TYPE=C3D20, ELSET=Eall
  2381,   353,   440,   437,   355,  1272,  1373,  1370,  1274,  4459,  4458,
        4451,  4272,  2802,  2803,  2793,  2615,  5684,  5785,  5782,  5686
  2382,   356,   436,   441,   351,  1275,  1369,  1374,  1270,  4449,  4461,
        4460,  4273,  2795,  2804,  2805,  2618,  5687,  5781,  5786,  5682
  2383,   255,   350,   439,   201,  1161,  1269,  1372,  1107,  4263,  4463,
        4462,  4149,  2609,  2806,  2807,  2493,  5573,  5681,  5784,  5519
  2384,   359,   443,   442,   360,  1280,  1376,  1375,  1281,  4466,  4465,
        4464,  4287,  2808,  2809,  2810,  2630,  5692,  5788,  5787,  5693
  2385,   350,   444,   438,   439,  1269,  1377,  1371,  1372,  4468,  4467,
        4454,  4463,  2811,  2812,  2798,  2806,  5681,  5789,  5783,  5784
  2386,   349,   446,   445,   435,  1268,  1278,  1378,  1368,  4471,  4470,
        4469,  4448,  2813,  2814,  2815,  2791,  5680,  5690,  5790,  5780
  2387,   386,   448,   447,   304,  1333,  1380,  1379,  1217,  4475,  4474,
        4473,  4472,  2816,  2817,  2818,  2819,  5745,  5792,  5791,  5629
  2388,   391,   449,   382,   381,  1323,  1381,  1307,  1322,  4478,  4477,
        4476,  4362,  2820,  2821,  2822,  2706,  5735,  5793,  5719,  5734
  2389,   361,   451,   450,   362,  1282,  1383,  1382,  1283,  4481,  4480,
        4479,  4291,  2823,  2824,  2825,  2634,  5694,  5795,  5794,  5695
  2390,   362,   450,   452,   363,  1283,  1382,  1384,  1284,  4479,  4483,
        4482,  4293,  2825,  2826,  2827,  2636,  5695,  5794,  5796,  5696
** ... 28 like lines cut
*ELEMENT, TYPE=C3D15, ELSET=Eall
  2405,   858,   878,   869,  1398,  1400,  1399,  4512,  4511,  4510,
        2854,  2855,  2856,  5810,  5812,  5811
*ELEMENT, TYPE=C3D20, ELSET=Eall
  2406,   302,   468,   467,   301,  1215,  1402,  1401,  1214,  4515,  4514,
        4513,  4163,  2857,  2858,  2859,  2507,  5627,  5814,  5813,  5626
  2407,   301,   467,   397,   307,  1214,  1401,  1329,  1220,  4513,  4516,
        4372,  4283,  2859,  2860,  2714,  2627,  5626,  5813,  5741,  5632
  2408,   341,   469,   468,   302,  1255,  1403,  1402,  1215,  4518,  4517,
        4515,  4239,  2861,  2862,  2857,  2584,  5667,  5815,  5814,  5627
  2409,   358,   429,   443,   359,  1279,  1362,  1376,  1280,  4435,  4519,
        4466,  4285,  2780,  2863,  2808,  2628,  5691,  5774,  5788,  5692
  2410,   351,   441,   444,   350,  1270,  1374,  1377,  1269,  4460,  4520,
        4468,  4264,  2805,  2864,  2811,  2608,  5682,  5786,  5789,  5681
  2411,   347,   434,   470,   348,  1263,  1367,  1404,  1264,  4444,  4522,
        4521,  4257,  2789,  2865,  2866,  2600,  5675,  5779,  5816,  5676
  2412,   304,   447,   433,   303,  1217,  1379,  1366,  1216,  4473,  4523,
        4443,  4166,  2818,  2867,  2786,  2510,  5629,  5791,  5778,  5628
  2413,   312,   402,   471,   309,  1225,  1335,  1405,  1222,  4381,  4525,
        4524,  4335,  2727,  2868,  2869,  2679,  5637,  5747,  5817,  5634
  2414,   360,   442,   451,   361,  1281,  1375,  1383,  1282,  4464,  4526,
        4481,  4289,  2810,  2870,  2823,  2632,  5693,  5787,  5795,  5694
  2415,   309,   471,   400,   308,  1222,  1405,  1332,  1221,  4524,  4527,
        4377,  4174,  2869,  2871,  2720,  2518,  5634,  5817,  5744,  5633
** ... 36 like lines cut
*ELEMENT, TYPE=C3D15, ELSET=Eall
  2434,   652,   675,   666,  1423,  1425,  1424,  4569,  4568,  4567,
        2911,  2912,  2913,  5835,  5837,  5836
*ELEMENT, TYPE=C3D20, ELSET=Eall
  2435,   394,   493,   492,   430,  1326,  1427,  1426,  1363,  4572,  4571,
        4570,  4438,  2914,  2915,  2916,  2781,  5738,  5839,  5838,  5775
  2436,   404,   495,   494,   405,  1337,  1429,  1428,  1338,  4575,  4574,
        4573,  4387,  2917,  2918,  2919,  2730,  5749,  5841,  5840,  5750
  2437,   401,   496,   448,   386,  1334,  1430,  1380,  1333,  4577,  4576,
        4475,  4379,  2920,  2921,  2816,  2723,  5746,  5842,  5792,  5745
  2438,   406,   498,   497,   407,  1339,  1432,  1431,  1340,  4580,  4579,
        4578,  4391,  2922,  2923,  2924,  2734,  5751,  5844,  5843,  5752
  2439,   407,   497,   499,   408,  1340,  1431,  1433,  1341,  4578,  4582,
        4581,  4393,  2924,  2925,  2926,  2736,  5752,  5843,  5845,  5753
  2440,   408,   499,   500,   409,  1341,  1433,  1434,  1342,  4581,  4584,
        4583,  4395,  2926,  2927,  2928,  2738,  5753,  5845,  5846,  5754
  2441,   409,   500,   501,   410,  1342,  1434,  1435,  1343,  4583,  4586,
        4585,  4397,  2928,  2929,  2930,  2740,  5754,  5846,  5847,  5755
  2442,   410,   501,   502,   411,  1343,  1435,  1436,  1344,  4585,  4588,
        4587,  4399,  2930,  2931,  2932,  2742,  5755,  5847,  5848,  5756
  2443,   411,   502,   503,   412,  1344,  1436,  1437,  1345,  4587,  4590,
        4589,  4401,  2932,  2933,  2934,  2744,  5756,  5848,  5849,  5757
  2444,   412,   503,   504,   413,  1345,  1437,  1438,  1346,  4589,  4592,
        4591,  4403,  2934,  2935,  2936,  2746,  5757,  5849,  5850,  5758
** ... 42 like lines cut
*ELEMENT, TYPE=C3D15, ELSET=Eall
  2466,   659,   706,   620,  1461,  1462,  1046,  4637,  4636,  4635,
        2979,  2980,  2981,  5873,  5874,  5458
*ELEMENT, TYPE=C3D20, ELSET=Eall
  2467,   666,   675,   667,   591,  1424,  1425,  1464,  1463,  4568,  4640,
        4639,  4638,  2912,  2982,  2983,  2984,  5836,  5837,  5876,  5875
  2468,   440,   529,   526,   437,  1373,  1465,  1460,  1370,  4642,  4641,
        4634,  4458,  2985,  2986,  2977,  2803,  5785,  5877,  5872,  5782
  2469,   357,   299,   384,   488,  1419,  1212,  1313,  1420,  4644,  4345,
        4643,  4560,  2987,  2691,  2988,  2902,  5831,  5624,  5725,  5832
  2470,   443,   530,   522,   442,  1376,  1466,  1456,  1375,  4646,  4645,
        4627,  4465,  2989,  2990,  2969,  2809,  5788,  5878,  5868,  5787
  2471,   452,   532,   531,   453,  1384,  1468,  1467,  1385,  4649,  4648,
        4647,  4485,  2991,  2992,  2993,  2828,  5796,  5880,  5879,  5797
  2472,   384,   490,   533,   488,  1313,  1422,  1469,  1420,  4565,  4651,
        4650,  4643,  2910,  2994,  2995,  2988,  5725,  5834,  5881,  5832
  2473,   450,   534,   532,   452,  1382,  1470,  1468,  1384,  4653,  4652,
        4649,  4483,  2996,  2997,  2991,  2826,  5794,  5882,  5880,  5796
  2474,   454,   536,   535,   455,  1386,  1472,  1471,  1387,  4656,  4655,
        4654,  4489,  2998,  2999,  3000,  2832,  5798,  5884,  5883,  5799
  2475,   455,   535,   537,   456,  1387,  1471,  1473,  1388,  4654,  4658,
        4657,  4491,  3000,  3001,  3002,  2834,  5799,  5883,  5885,  5800
  2476,   456,   537,   538,   457,  1388,  1473,  1474,  1389,  4657,  4660,
        4659,  4493,  3002,  3003,  3004,  2836,  5800,  5885,  5886,  5801
** ... 8 like lines cut
*ELEMENT, TYPE=C3D15, ELSET=Eall
  2481,   709,   753,   655,  1480,  1482,  1481,  4672,  4671,  4670,
        3014,  3015,  3016,  5892,  5894,  5893
*ELEMENT, TYPE=C3D20, ELSET=Eall
  2482,   620,   706,   671,   619,  1046,  1462,  1484,  1483,  4636,  4675,
        4674,  4673,  2980,  3017,  3018,  3019,  5458,  5874,  5896,  5895
  2483,   430,   492,   481,   432,  1363,  1426,  1413,  1365,  4570,  4676,
        4546,  4446,  2916,  3020,  2888,  2790,  5775,  5838,  5825,  5777
  2484,   395,   545,   493,   394,  1327,  1485,  1427,  1326,  4678,  4677,
        4572,  4368,  3021,  3022,  2914,  2712,  5739,  5897,  5839,  5738
  2485,   431,   480,   487,   434,  1364,  1412,  1418,  1367,  4544,  4679,
        4557,  4445,  2890,  3023,  2899,  2788,  5776,  5824,  5830,  5779
  2486,   397,   543,   520,   396,  1329,  1479,  1454,  1328,  4668,  4680,
        4624,  4371,  3013,  3024,  2966,  2715,  5741,  5891,  5866,  5740
  2487,   469,   546,   542,   468,  1403,  1486,  1478,  1402,  4682,  4681,
        4667,  4517,  3025,  3026,  3009,  2862,  5815,  5898,  5890,  5814
  2488,   441,   524,   547,   444,  1374,  1458,  1487,  1377,  4630,  4684,
        4683,  4520,  2976,  3027,  3028,  2864,  5786,  5870,  5899,  5789
  2489,   405,   494,   498,   406,  1338,  1428,  1432,  1339,  4573,  4685,
        4580,  4389,  2919,  3029,  2922,  2732,  5750,  5840,  5844,  5751
  2490,   444,   547,   523,   438,  1377,  1487,  1457,  1371,  4683,  4686,
        4629,  4467,  3028,  3030,  2972,  2812,  5789,  5899,  5869,  5783
  2491,   451,   521,   534,   450,  1383,  1455,  1470,  1382,  4625,  4687,
        4653,  4480,  2971,  3031,  2996,  2824,  5795,  5867,  5882,  5794
** ... 16 like lines cut
*ELEMENT, TYPE=C3D15, ELSET=Eall
  2500,   722,   623,   624,  1276,  1496,  1265,  4705,  4704,  4276,
        3048,  3049,  2622,  5688,  5908,  5677
*ELEMENT, TYPE=C3D20, ELSET=Eall
  2501,   484,   550,   552,   490,  1416,  1493,  1497,  1422,  4699,  4707,
        4706,  4566,  3044,  3050,  3051,  2909,  5828,  5905,  5909,  5834
*ELEMENT, TYPE=C3D15, ELSET=Eall
  2502,   482,   395,   433,  1414,  1327,  1366,  4708,  4442,  4547,
        3052,  2787,  2893,  5826,  5739,  5778
*ELEMENT, TYPE=C3D20, ELSET=Eall
  2503,   485,   527,   553,   489,  1308,  1311,  1498,  1421,  4342,  4710,
        4709,  4564,  2688,  3053,  3054,  2907,  5720,  5723,  5910,  5833
  2504,   459,   540,   495,   460,  1391,  1476,  1429,  1392,  4663,  4712,
        4711,  4499,  3008,  3055,  3056,  2842,  5803,  5888,  5841,  5804
  2505,   474,   554,   496,   401,  1410,  1499,  1430,  1334,  4714,  4713,
        4577,  4535,  3057,  3058,  2920,  2881,  5822,  5911,  5842,  5746
  2506,   581,   545,   395,   482,  1500,  1485,  1327,  1414,  4716,  4678,
        4708,  4715,  3059,  3021,  3052,  3060,  5912,  5897,  5739,  5826
*ELEMENT, TYPE=C3D15, ELSET=Eall
  2507,   780,   781,   826,  1501,  1503,  1502,  4719,  4718,  4717,
        3061,  3062,  3063,  5913,  5915,  5914
*ELEMENT, TYPE=C3D20, ELSET=Eall
  2508,   483,   554,   555,   482,  1415,  1499,  1504,  1414,  4722,  4721,
        4720,  4548,  3064,  3065,  3066,  2892,  5827,  5911,  5916,  5826
  2509,   826,   781,   840,   862,  1502,  1503,  1204,  1205,  4718,  4724,
        4147,  4723,  3062,  3067,  2491,  3068,  5914,  5915,  5616,  5617
  2510,   624,   623,   598,   580,  1265,  1496,  1506,  1505,  4704,  4727,
        4726,  4725,  3049,  3069,  3070,  3071,  5677,  5908,  5918,  5917
  2511,   547,   557,   556,   523,  1487,  1508,  1507,  1457,  4730,  4729,
        4728,  4686,  3072,  3073,  3074,  3030,  5899,  5920,  5919,  5869
  2512,   498,   559,   558,   497,  1432,  1510,  1509,  1431,  4733,  4732,
        4731,  4579,  3075,  3076,  3077,  2923,  5844,  5922,  5921,  5843
  2513,   497,   558,   560,   499,  1431,  1509,  1511,  1433,  4731,  4735,
        4734,  4582,  3077,  3078,  3079,  2925,  5843,  5921,  5923,  5845
  2514,   501,   562,   561,   502,  1435,  1513,  1512,  1436,  4738,  4737,
        4736,  4588,  3080,  3081,  3082,  2931,  5847,  5925,  5924,  5848
  2515,   502,   561,   563,   503,  1436,  1512,  1514,  1437,  4736,  4740,
        4739,  4590,  3082,  3083,  3084,  2933,  5848,  5924,  5926,  5849
  2516,   503,   563,   564,   504,  1437,  1514,  1515,  1438,  4739,  4742,
        4741,  4592,  3084,  3085,  3086,  2935,  5849,  5926,  5927,  5850
  2517,   504,   564,   565,   505,  1438,  1515,  1516,  1439,  4741,  4744,
        4743,  4594,  3086,  3087,  3088,  2937,  5850,  5927,  5928,  5851
** ... 40 like lines cut
*ELEMENT, TYPE=C3D15, ELSET=Eall
  2538,   704,   755,   711,  1543,  1545,  1544,  4793,  4792,  4791,
        3135,  3136,  3137,  5955,  5957,  5956
*ELEMENT, TYPE=C3D20, ELSET=Eall
  2539,   529,   591,   590,   526,  1465,  1463,  1546,  1460,  4796,  4795,
        4794,  4641,  3138,  3139,  3140,  2986,  5877,  5875,  5958,  5872
  2540,   534,   593,   592,   532,  1470,  1548,  1547,  1468,  4799,  4798,
        4797,  4652,  3141,  3142,  3143,  2997,  5882,  5960,  5959,  5880
  2541,   530,   594,   583,   522,  1466,  1549,  1536,  1456,  4801,  4800,
        4781,  4645,  3144,  3145,  3123,  2990,  5878,  5961,  5948,  5868
  2542,   540,   595,   494,   495,  1476,  1550,  1428,  1429,  4803,  4802,
        4574,  4712,  3146,  3147,  2918,  3055,  5888,  5962,  5840,  5841
  2543,   532,   592,   589,   531,  1468,  1547,  1542,  1467,  4797,  4804,
        4790,  4648,  3143,  3148,  3132,  2992,  5880,  5959,  5954,  5879
  2544,   540,   539,   559,   595,  1476,  1475,  1510,  1550,  4664,  4806,
        4805,  4803,  3007,  3149,  3150,  3146,  5888,  5887,  5922,  5962
  2545,   490,   552,   549,   533,  1422,  1497,  1489,  1469,  4706,  4807,
        4694,  4651,  3051,  3151,  3036,  2994,  5834,  5909,  5901,  5881
  2546,   536,   588,   596,   535,  1472,  1541,  1551,  1471,  4788,  4809,
        4808,  4655,  3134,  3152,  3153,  2999,  5884,  5953,  5963,  5883
  2547,   535,   596,   597,   537,  1471,  1551,  1552,  1473,  4808,  4811,
        4810,  4658,  3153,  3154,  3155,  3001,  5883,  5963,  5964,  5885
  2548,   542,   580,   598,   541,  1478,  1505,  1506,  1477,  4773,  4726,
        4812,  4666,  3118,  3070,  3156,  3010,  5890,  5917,  5918,  5889
** ... 28 like lines cut
*ELEMENT, TYPE=C3D15, ELSET=Eall
  2563,    11,    12,   199,   905,   906,  1196,  1813,  4843,  4842,
        1803,  3186,  3187,  2005,  2006,  5608
*ELEMENT, TYPE=C3D20, ELSET=Eall
  2564,   526,   590,   585,   525,  1460,  1546,  1538,  1459,  4794,  4844,
        4784,  4633,  3140,  3188,  3126,  2978,  5872,  5958,  5950,  5871
  2565,   537,   597,   611,   538,  1473,  1552,  1567,  1474,  4810,  4846,
        4845,  4660,  3155,  3189,  3190,  3003,  5885,  5964,  5979,  5886
  2566,   538,   611,   559,   539,  1474,  1567,  1510,  1475,  4845,  4847,
        4806,  4662,  3190,  3191,  3149,  3005,  5886,  5979,  5922,  5887
  2567,   524,   612,   557,   547,  1458,  1568,  1508,  1487,  4849,  4848,
        4730,  4684,  3192,  3193,  3072,  3027,  5870,  5980,  5920,  5899
  2568,   475,   579,   555,   474,  1411,  1530,  1504,  1410,  4771,  4851,
        4850,  4536,  3116,  3194,  3195,  2880,  5823,  5942,  5916,  5822
  2569,   199,    12,   198,   286,  1196,   906,  1103,  1195,  4843,  3950,
        4852,  4126,  3186,  2295,  3196,  2473,  5608,  2006,  5515,  5607
  2570,   661,   699,   702,   703,  1569,  1572,  1571,  1570,  4856,  4855,
        4854,  4853,  3197,  3198,  3199,  3200,  5981,  5984,  5983,  5982
  2571,   446,   473,   614,   445,  1278,  1407,  1573,  1378,  4530,  4858,
        4857,  4470,  2875,  3201,  3202,  2814,  5690,  5819,  5985,  5790
  2572,   766,   728,   699,   714,  1574,  1576,  1572,  1575,  4862,  4861,
        4860,  4859,  3203,  3204,  3205,  3206,  5986,  5988,  5984,  5987
  2573,   612,   617,   616,   557,  1568,  1578,  1577,  1508,  4865,  4864,
        4863,  4848,  3207,  3208,  3209,  3193,  5980,  5990,  5989,  5920
** ... 4 like lines cut
*ELEMENT, TYPE=C3D15, ELSET=Eall
  2576,   718,   708,   771,  1580,  1495,  1581,  4871,  4870,  4869,
        3213,  3214,  3215,  5992,  5907,  5993
*ELEMENT, TYPE=C3D20, ELSET=Eall
  2577,   551,   620,   619,   550,  1045,  1046,  1483,  1493,  3843,  4673,
        4868,  4700,  2187,  3019,  3210,  3043,  5457,  5458,  5895,  5905
  2578,   771,   708,   753,   795,  1581,  1495,  1482,  1582,  4870,  4703,
        4873,  4872,  3214,  3045,  3216,  3217,  5993,  5907,  5894,  5994
*ELEMENT, TYPE=C3D15, ELSET=Eall
  2579,   723,   724,   770,  1583,  1585,  1584,  4876,  4875,  4874,
        3218,  3219,  3220,  5995,  5997,  5996
*ELEMENT, TYPE=C3D20, ELSET=Eall
  2580,   563,   622,   621,   564,  1514,  1587,  1586,  1515,  4879,  4878,
        4877,  4742,  3221,  3222,  3223,  3085,  5926,  5999,  5998,  5927
  2581,   770,   724,   768,   788,  1584,  1585,  1589,  1588,  4875,  4882,
        4881,  4880,  3219,  3224,  3225,  3226,  5996,  5997,  6001,  6000
*ELEMENT, TYPE=C3D15, ELSET=Eall
  2582,   701,   683,   757,  1590,  1592,  1591,  4885,  4884,  4883,
        3227,  3228,  3229,  6002,  6004,  6003
*ELEMENT, TYPE=C3D20, ELSET=Eall
  2583,   562,   626,   625,   561,  1513,  1594,  1593,  1512,  4888,  4887,
        4886,  4737,  3230,  3231,  3232,  3081,  5925,  6006,  6005,  5924
  2584,   561,   625,   622,   563,  1512,  1593,  1587,  1514,  4886,  4889,
        4879,  4740,  3232,  3233,  3221,  3083,  5924,  6005,  5999,  5926
  2585,   565,   628,   627,   566,  1516,  1596,  1595,  1517,  4892,  4891,
        4890,  4746,  3234,  3235,  3236,  3089,  5928,  6008,  6007,  5929
  2586,   566,   627,   629,   567,  1517,  1595,  1597,  1518,  4890,  4894,
        4893,  4748,  3236,  3237,  3238,  3091,  5929,  6007,  6009,  5930
  2587,   567,   629,   630,   568,  1518,  1597,  1598,  1519,  4893,  4896,
        4895,  4750,  3238,  3239,  3240,  3093,  5930,  6009,  6010,  5931
  2588,   568,   630,   631,   569,  1519,  1598,  1599,  1520,  4895,  4898,
        4897,  4752,  3240,  3241,  3242,  3095,  5931,  6010,  6011,  5932
  2589,   569,   631,   632,   570,  1520,  1599,  1600,  1521,  4897,  4900,
        4899,  4754,  3242,  3243,  3244,  3097,  5932,  6011,  6012,  5933
  2590,   570,   632,   633,   571,  1521,  1600,  1601,  1522,  4899,  4902,
        4901,  4756,  3244,  3245,  3246,  3099,  5933,  6012,  6013,  5934
  2591,   571,   633,   634,   572,  1522,  1601,  1602,  1523,  4901,  4904,
        4903,  4758,  3246,  3247,  3248,  3101,  5934,  6013,  6014,  5935
  2592,   572,   634,   635,   573,  1523,  1602,  1603,  1524,  4903,  4906,
        4905,  4760,  3248,  3249,  3250,  3103,  5935,  6014,  6015,  5936
** ... 34 like lines cut
*ELEMENT, TYPE=C3D15, ELSET=Eall
  2610,   439,   295,   201,  1372,  1207,  1107,  4455,  4152,  4462,
        2797,  2494,  2807,  5784,  5619,  5519
*ELEMENT, TYPE=C3D20, ELSET=Eall
  2611,   590,   655,   654,   585,  1546,  1481,  1494,  1538,  4947,  4701,
        4946,  4844,  3290,  3047,  3291,  3188,  5958,  5893,  5906,  5950
  2612,   610,   606,   661,   703,  1620,  1560,  1569,  1570,  4950,  4949,
        4853,  4948,  3292,  3293,  3200,  3294,  6032,  5972,  5981,  5982
  2613,   774,   835,   796,   754,  1624,  1627,  1626,  1625,  4954,  4953,
        4952,  4951,  3295,  3296,  3297,  3298,  6036,  6039,  6038,  6037
  2614,   728,   766,   774,   754,  1576,  1574,  1624,  1625,  4862,  4956,
        4951,  4955,  3203,  3299,  3298,  3300,  5988,  5986,  6036,  6037
  2615,   719,   625,   626,   802,  1628,  1593,  1594,  1629,  4959,  4887,
        4958,  4957,  3301,  3231,  3302,  3303,  6040,  6005,  6006,  6041
  2616,   600,   656,   649,   599,  1554,  1630,  1617,  1553,  4961,  4960,
        4931,  4814,  3304,  3305,  3273,  3158,  5966,  6042,  6029,  5965
  2617,   592,   658,   657,   589,  1547,  1632,  1631,  1542,  4964,  4963,
        4962,  4804,  3306,  3307,  3308,  3148,  5959,  6044,  6043,  5954
  2618,   773,   812,   836,   834,  1633,  1636,  1635,  1634,  4968,  4967,
        4966,  4965,  3309,  3310,  3311,  3312,  6045,  6048,  6047,  6046
  2619,   602,   660,   656,   600,  1556,  1637,  1630,  1554,  4970,  4969,
        4961,  4818,  3313,  3314,  3304,  3163,  5968,  6049,  6042,  5966
  2620,   794,   760,   773,   834,  1534,  1531,  1633,  1634,  4778,  4972,
        4965,  4971,  3119,  3315,  3312,  3316,  5946,  5943,  6045,  6046
** ... 24 like lines cut
*ELEMENT, TYPE=C3D15, ELSET=Eall
  2633,   560,   558,   650,  1511,  1509,  1618,  4735,  4995,  4945,
        3078,  3339,  3288,  5923,  5921,  6030
*ELEMENT, TYPE=C3D20, ELSET=Eall
  2634,   613,   669,   660,   602,  1610,  1649,  1637,  1556,  4998,  4997,
        4970,  4996,  3340,  3341,  3313,  3342,  6022,  6061,  6049,  5968
  2635,   650,   558,   611,   597,  1618,  1509,  1567,  1552,  4995,  4999,
        4846,  4932,  3339,  3343,  3189,  3278,  6030,  5921,  5979,  5964
  2636,   721,   720,   809,   730,  1650,  1653,  1652,  1651,  5003,  5002,
        5001,  5000,  3344,  3345,  3346,  3347,  6062,  6065,  6064,  6063
  2637,   585,   654,   672,   584,  1538,  1494,  1654,  1537,  4946,  5005,
        5004,  4783,  3291,  3348,  3349,  3127,  5950,  5906,  6066,  5949
  2638,   617,   674,   673,   616,  1578,  1656,  1655,  1577,  5008,  5007,
        5006,  4864,  3350,  3351,  3352,  3208,  5990,  6068,  6067,  5989
  2639,   660,   669,   721,   730,  1637,  1649,  1650,  1651,  4997,  5010,
        5000,  5009,  3341,  3353,  3347,  3354,  6049,  6061,  6062,  6063
  2640,   824,   855,   888,   884,  1657,  1660,  1659,  1658,  5014,  5013,
        5012,  5011,  3355,  3356,  3357,  3358,  6069,  6072,  6071,  6070
  2641,   601,   676,   668,   587,  1555,  1661,  1648,  1540,  5016,  5015,
        4994,  4816,  3359,  3360,  3337,  3161,  5967,  6073,  6060,  5952
  2642,   861,   823,   824,   884,  1303,  1304,  1657,  1658,  4331,  5018,
        5011,  5017,  2678,  3361,  3358,  3362,  5715,  5716,  6069,  6070
  2643,   380,   305,   491,   615,  1301,  1218,  1663,  1662,  5022,  5021,
        5020,  5019,  3363,  3364,  3365,  3366,  5713,  5630,  6075,  6074
** ... 58 like lines cut
*ELEMENT, TYPE=C3D15, ELSET=Eall
  2673,   447,   448,   483,  1379,  1380,  1415,  4474,  5081,  4549,
        2817,  3425,  2891,  5791,  5792,  5827
*ELEMENT, TYPE=C3D20, ELSET=Eall
  2674,   483,   448,   496,   554,  1415,  1380,  1430,  1499,  5081,  4576,
        4713,  4722,  3425,  2921,  3058,  3064,  5827,  5792,  5842,  5911
  2675,   655,   667,   702,   709,  1481,  1464,  1571,  1480,  4988,  5072,
        5082,  4670,  3332,  3417,  3426,  3016,  5893,  5876,  5983,  5892
  2676,   663,   710,   705,   665,  1639,  1686,  1685,  1641,  5084,  5083,
        5076,  4987,  3427,  3428,  3418,  3331,  6051,  6098,  6097,  6053
  2677,   646,   711,   696,   645,  1614,  1544,  1622,  1613,  5086,  5085,
        5063,  4925,  3429,  3430,  3406,  3269,  6026,  5956,  6034,  6025
  2678,   658,   695,   712,   657,  1632,  1623,  1670,  1631,  5062,  5039,
        5087,  4963,  3407,  3381,  3431,  3307,  6044,  6035,  6082,  6043
  2679,   628,   700,   684,   627,  1596,  1684,  1671,  1595,  5069,  5088,
        5041,  4891,  3415,  3432,  3384,  3235,  6008,  6096,  6083,  6007
  2680,   664,   713,   710,   663,  1640,  1687,  1686,  1639,  5090,  5089,
        5084,  4977,  3433,  3434,  3427,  3321,  6052,  6099,  6098,  6051
  2681,   648,   697,   714,   662,  1616,  1682,  1575,  1638,  5064,  5092,
        5091,  4975,  3410,  3435,  3436,  3319,  6028,  6094,  5987,  6050
  2682,   656,   715,   698,   649,  1630,  1688,  1683,  1617,  5094,  5093,
        5066,  4960,  3437,  3438,  3408,  3305,  6042,  6100,  6095,  6029
  2683,   676,   717,   716,   668,  1661,  1690,  1689,  1648,  5097,  5096,
        5095,  5015,  3439,  3440,  3441,  3360,  6073,  6102,  6101,  6060
** ... 8 like lines cut
*ELEMENT, TYPE=C3D15, ELSET=Eall
  2688,   477,   435,   544,  1309,  1368,  1312,  4539,  5101,  4344,
        2882,  3445,  2686,  5721,  5780,  5724
*ELEMENT, TYPE=C3D20, ELSET=Eall
  2689,   544,   435,   445,   807,  1312,  1368,  1378,  1691,  5101,  4469,
        5103,  5102,  3445,  2815,  3446,  3447,  5724,  5780,  5790,  6103
*ELEMENT, TYPE=C3D15, ELSET=Eall
  2690,   470,   486,   473,  1404,  1417,  1407,  4555,  5104,  4531,
        2901,  3448,  2874,  5816,  5829,  5819
*ELEMENT, TYPE=C3D20, ELSET=Eall
  2691,   473,   486,   527,   614,  1407,  1417,  1311,  1573,  5104,  5106,
        5105,  4858,  3448,  3449,  3450,  3201,  5819,  5829,  5723,  5985
*ELEMENT, TYPE=C3D15, ELSET=Eall
  2692,   378,   377,   391,  1299,  1298,  1323,  4323,  5107,  4363,
        2666,  3451,  2705,  5711,  5710,  5735
*ELEMENT, TYPE=C3D20, ELSET=Eall
  2693,   671,   724,   723,   677,  1484,  1585,  1583,  1665,  5109,  4876,
        5108,  5029,  3452,  3218,  3453,  3372,  5896,  5997,  5995,  6077
  2694,   654,   708,   718,   672,  1494,  1495,  1580,  1654,  4702,  4871,
        5099,  5005,  3046,  3213,  3442,  3348,  5906,  5907,  5992,  6066
  2695,   674,   726,   725,   673,  1656,  1532,  1692,  1655,  5112,  5111,
        5110,  5007,  3454,  3455,  3456,  3351,  6068,  5944,  6104,  6067
*ELEMENT, TYPE=C3D15, ELSET=Eall
  2696,   389,   476,   388,  1319,  1310,  1318,  4538,  4554,  4355,
        2883,  2897,  2699,  5731,  5722,  5730
*ELEMENT, TYPE=C3D20, ELSET=Eall
  2697,   623,   727,   717,   676,  1496,  1693,  1690,  1661,  5114,  5113,
        5097,  5079,  3457,  3458,  3439,  3424,  5908,  6105,  6102,  6073
  2698,   702,   699,   728,   709,  1571,  1572,  1576,  1480,  4855,  4861,
        5115,  5082,  3198,  3204,  3459,  3426,  5983,  5984,  5988,  5892
  2699,   677,   723,   729,   670,  1665,  1583,  1694,  1666,  5108,  5118,
        5117,  5116,  3453,  3460,  3461,  3462,  6077,  5995,  6106,  6078
  2700,   556,   659,   620,   707,  1507,  1461,  1046,  1044,  5120,  4635,
        3844,  5119,  3463,  2981,  2186,  3464,  5919,  5873,  5458,  5456
  2701,   712,   719,   653,   657,  1670,  1628,  1621,  1631,  5122,  5121,
        4992,  5087,  3465,  3466,  3336,  3431,  6082,  6040,  6033,  6043
*ELEMENT, TYPE=C3D15, ELSET=Eall
  2702,   460,   495,   461,  1392,  1429,  1393,  4711,  4691,  4501,
        3056,  3035,  2844,  5804,  5841,  5805
*ELEMENT, TYPE=C3D20, ELSET=Eall
  2703,   660,   730,   715,   656,  1637,  1651,  1688,  1630,  5009,  5123,
        5094,  4969,  3354,  3467,  3437,  3314,  6049,  6063,  6100,  6042
  2704,   556,   557,   616,   659,  1507,  1508,  1577,  1461,  4729,  4863,
        5077,  5120,  3073,  3209,  3422,  3463,  5919,  5920,  5989,  5873
  2705,   623,   722,   731,   727,  1496,  1276,  1695,  1693,  4705,  5125,
        5124,  5114,  3048,  3468,  3469,  3457,  5908,  5688,  6107,  6105
  2706,   466,   403,   472,   449,  1696,  1336,  1406,  1381,  5128,  4528,
        5127,  5126,  3470,  2873,  3471,  3472,  6108,  5748,  5818,  5793
  2707,   680,   734,   733,   679,  1667,  1697,  1277,  1266,  5130,  5129,
        4278,  5032,  3473,  3474,  2620,  3376,  6079,  6109,  5689,  5678
  2708,   671,   706,   735,   724,  1484,  1462,  1698,  1585,  4675,  5132,
        5131,  5109,  3017,  3475,  3476,  3452,  5896,  5874,  6110,  5997
  2709,   713,   737,   736,   710,  1687,  1700,  1699,  1686,  5135,  5134,
        5133,  5089,  3477,  3478,  3479,  3434,  6099,  6112,  6111,  6098
  2710,   686,   739,   738,   685,  1673,  1702,  1701,  1672,  5138,  5137,
        5136,  5043,  3480,  3481,  3482,  3387,  6085,  6114,  6113,  6084
  2711,   685,   738,   740,   687,  1672,  1701,  1703,  1674,  5136,  5140,
        5139,  5046,  3482,  3483,  3484,  3389,  6084,  6113,  6115,  6086
  2712,   689,   742,   741,   690,  1676,  1705,  1704,  1677,  5143,  5142,
        5141,  5052,  3485,  3486,  3487,  3395,  6088,  6117,  6116,  6089
** ... 24 like lines cut
*ELEMENT, TYPE=C3D15, ELSET=Eall
  2725,   341,   256,   357,  1255,  1162,  1419,  4240,  5165,  4558,
        2583,  3509,  2904,  5667,  5574,  5831
*ELEMENT, TYPE=C3D20, ELSET=Eall
  2726,   746,   720,   721,   694,  1709,  1653,  1650,  1681,  5167,  5003,
        5166,  5150,  3510,  3344,  3511,  3495,  6121,  6065,  6062,  6093
  2727,   727,   731,   758,   751,  1693,  1695,  1717,  1714,  5124,  5169,
        5168,  5159,  3469,  3512,  3513,  3501,  6105,  6107,  6129,  6126
  2728,   711,   759,   757,   696,  1544,  1565,  1591,  1622,  4839,  5170,
        4940,  5085,  3185,  3514,  3286,  3430,  5956,  5977,  6003,  6034
  2729,   718,   760,   726,   674,  1580,  1531,  1532,  1656,  5171,  4775,
        5112,  5098,  3515,  3122,  3454,  3443,  5992,  5943,  5944,  6068
  2730,   688,   761,   742,   689,  1675,  1718,  1705,  1676,  5173,  5172,
        5143,  5050,  3516,  3517,  3485,  3393,  6087,  6130,  6117,  6088
  2731,   710,   736,   756,   705,  1686,  1699,  1716,  1685,  5133,  5174,
        5164,  5083,  3479,  3518,  3507,  3428,  6098,  6111,  6128,  6097
  2732,   715,   763,   762,   698,  1688,  1720,  1719,  1683,  5177,  5176,
        5175,  5093,  3519,  3520,  3521,  3438,  6100,  6132,  6131,  6095
  2733,   717,   750,   764,   716,  1690,  1713,  1721,  1689,  5157,  5179,
        5178,  5096,  3503,  3522,  3523,  3440,  6102,  6125,  6133,  6101
  2734,   856,   866,   825,   857,  1722,  1063,  1060,  1723,  5182,  3873,
        5181,  5180,  3524,  2214,  3525,  3526,  6134,  5475,  5472,  6135
  2735,   698,   762,   765,   697,  1683,  1719,  1724,  1682,  5175,  5184,
        5183,  5065,  3521,  3527,  3528,  3409,  6095,  6131,  6136,  6094
** ... 20 like lines cut
*ELEMENT, TYPE=C3D15, ELSET=Eall
  2746,   287,   286,   296,  1198,  1195,  1302,  4129,  5199,  4329,
        2470,  3543,  2673,  5610,  5607,  5714
*ELEMENT, TYPE=C3D20, ELSET=Eall
  2747,   296,   286,   297,   383,  1302,  1195,  1729,  1728,  5199,  5202,
        5201,  5200,  3543,  3544,  3545,  3546,  5714,  5607,  6141,  6140
  2748,   771,   773,   760,   718,  1581,  1633,  1531,  1580,  5203,  4972,
        5171,  4869,  3547,  3315,  3515,  3215,  5993,  6045,  5943,  5992
  2749,   377,   466,   449,   391,  1298,  1696,  1381,  1323,  5204,  5126,
        4478,  5107,  3548,  3472,  2820,  3451,  5710,  6108,  5793,  5735
  2750,   723,   770,   775,   729,  1583,  1584,  1730,  1694,  4874,  5206,
        5205,  5118,  3220,  3549,  3550,  3460,  5995,  5996,  6142,  6106
  2751,   845,   894,   883,   859,  1731,  1734,  1733,  1732,  5210,  5209,
        5208,  5207,  3551,  3552,  3553,  3554,  6143,  6146,  6145,  6144
  2752,   286,   198,   285,   297,  1195,  1103,  1191,  1729,  4852,  4121,
        5211,  5202,  3196,  2466,  3555,  3544,  5607,  5515,  5603,  6141
  2753,   726,   777,   776,   725,  1532,  1533,  1735,  1692,  4776,  5213,
        5212,  5111,  3121,  3556,  3557,  3455,  5944,  5945,  6147,  6104
  2754,   716,   764,   737,   713,  1689,  1721,  1700,  1687,  5178,  5214,
        5135,  5100,  3523,  3558,  3477,  3444,  6101,  6133,  6112,  6099
*ELEMENT, TYPE=C3D15, ELSET=Eall
  2755,    49,    50,   159,   943,   944,  1065,  1888,  5215,  3876,
        1878,  3559,  2218,  2043,  2044,  5477
*ELEMENT, TYPE=C3D20, ELSET=Eall
  2756,   772,   779,   778,   748,  1566,  1737,  1736,  1711,  5219,  5218,
        5217,  5216,  3560,  3561,  3562,  3563,  5978,  6149,  6148,  6123
  2757,   739,   781,   780,   738,  1702,  1503,  1501,  1701,  5221,  4719,
        5220,  5137,  3564,  3061,  3565,  3481,  6114,  5915,  5913,  6113
  2758,   765,   782,   774,   766,  1724,  1491,  1624,  1574,  5223,  5222,
        4956,  5185,  3566,  3567,  3299,  3529,  6136,  5903,  6036,  5986
  2759,   743,   784,   783,   744,  1706,  1739,  1738,  1707,  5226,  5225,
        5224,  5147,  3568,  3569,  3570,  3490,  6118,  6151,  6150,  6119
  2760,   738,   780,   785,   740,  1701,  1501,  1740,  1703,  5220,  5228,
        5227,  5140,  3565,  3571,  3572,  3483,  6113,  5913,  6152,  6115
  2761,   742,   787,   786,   741,  1705,  1742,  1741,  1704,  5231,  5230,
        5229,  5142,  3573,  3574,  3575,  3486,  6117,  6154,  6153,  6116
  2762,   741,   786,   784,   743,  1704,  1741,  1739,  1706,  5229,  5232,
        5226,  5145,  3575,  3576,  3568,  3488,  6116,  6153,  6151,  6118
  2763,   725,   776,   788,   768,  1692,  1735,  1588,  1589,  5212,  5233,
        4881,  5190,  3557,  3577,  3225,  3532,  6104,  6147,  6000,  6001
  2764,   758,   790,   789,   751,  1717,  1744,  1743,  1714,  5236,  5235,
        5234,  5168,  3578,  3579,  3580,  3513,  6129,  6156,  6155,  6126
  2765,   752,   791,   734,   680,  1715,  1745,  1697,  1667,  5238,  5237,
        5130,  5160,  3581,  3582,  3473,  3505,  6127,  6157,  6109,  6079
*ELEMENT, TYPE=C3D15, ELSET=Eall
  2766,   584,   612,   524,  1537,  1568,  1458,  5026,  4849,  4782,
        3371,  3192,  3128,  5949,  5980,  5870
*ELEMENT, TYPE=C3D20, ELSET=Eall
  2767,   729,   775,   792,   752,  1694,  1730,  1746,  1715,  5205,  5240,
        5239,  5161,  3550,  3583,  3584,  3504,  6106,  6142,  6158,  6127
  2768,   744,   783,   793,   745,  1707,  1738,  1747,  1708,  5224,  5242,
        5241,  5149,  3570,  3585,  3586,  3492,  6119,  6150,  6159,  6120
  2769,   159,    50,   158,   250,  1065,   944,  1059,  1156,  5215,  4051,
        4141,  4054,  3559,  2395,  2486,  2396,  5477,  2044,  5471,  5568
*ELEMENT, TYPE=C3D15, ELSET=Eall
  2770,    63,    64,   146,   957,   958,  1048,  1919,  5243,  3847,
        1904,  3587,  2189,  2057,  2058,  5460
*ELEMENT, TYPE=C3D20, ELSET=Eall
  2771,   754,   796,   795,   753,  1625,  1626,  1582,  1482,  4952,  5244,
        4873,  5162,  3297,  3588,  3216,  3506,  6037,  6038,  5994,  5894
  2772,   763,   798,   797,   762,  1720,  1748,  1490,  1719,  5247,  5246,
        5245,  5176,  3589,  3590,  3591,  3520,  6132,  6160,  5902,  6131
  2773,   146,    64,   145,   239,  1048,   958,  1043,  1145,  5243,  4030,
        4139,  4033,  3587,  2374,  2484,  2375,  5460,  2058,  5455,  5557
  2774,   755,   799,   779,   772,  1545,  1749,  1737,  1566,  5249,  5248,
        5219,  4841,  3592,  3593,  3560,  3183,  5957,  6161,  6149,  5978
  2775,   767,   801,   800,   749,  1725,  1209,  1210,  1712,  5251,  4154,
        5250,  5192,  3594,  2498,  3595,  3536,  6137,  5621,  5622,  6124
  2776,   719,   802,   732,   653,  1628,  1629,  1750,  1621,  4957,  5253,
        5252,  5121,  3303,  3596,  3597,  3466,  6040,  6041,  6162,  6033
  2777,   737,   804,   803,   736,  1700,  1752,  1751,  1699,  5256,  5255,
        5254,  5134,  3598,  3599,  3600,  3478,  6112,  6164,  6163,  6111
*ELEMENT, TYPE=C3D15, ELSET=Eall
  2778,   598,   601,   541,  1506,  1555,  1477,  5080,  4817,  4812,
        3423,  3160,  3156,  5918,  5967,  5889
  2779,   474,   555,   554,  1410,  1504,  1499,  4850,  4721,  4714,
        3195,  3065,  3057,  5822,  5916,  5911
*ELEMENT, TYPE=C3D20, ELSET=Eall
  2780,   761,   805,   787,   742,  1718,  1753,  1742,  1705,  5258,  5257,
        5231,  5172,  3601,  3602,  3573,  3517,  6130,  6165,  6154,  6117
*ELEMENT, TYPE=C3D15, ELSET=Eall
  2781,     9,    10,   105,   903,   904,  1004,  1799,  5259,  3762,
        1794,  3603,  2104,  2003,  2004,  5416
*ELEMENT, TYPE=C3D20, ELSET=Eall
  2782,   756,   806,   799,   755,  1716,  1754,  1749,  1545,  5261,  5260,
        5249,  5163,  3604,  3605,  3592,  3508,  6128,  6166,  6161,  5957
  2783,   105,    10,   104,   287,  1004,   904,  1197,  1198,  5259,  5262,
        4128,  4330,  3603,  3606,  2471,  2672,  5416,  2004,  5609,  5610
  2784,   749,   800,   781,   739,  1712,  1210,  1503,  1702,  5250,  5263,
        5221,  5155,  3595,  3607,  3564,  3500,  6124,  5622,  5915,  6114
  2785,   544,   807,   614,   527,  1312,  1691,  1573,  1311,  5102,  5264,
        5105,  4343,  3447,  3608,  3450,  2687,  5724,  6103,  5985,  5723
  2786,   763,   809,   808,   798,  1720,  1652,  1755,  1748,  5267,  5266,
        5265,  5247,  3609,  3610,  3611,  3589,  6132,  6064,  6167,  6160
  2787,   793,   808,   746,   745,  1747,  1755,  1709,  1708,  5269,  5268,
        5151,  5241,  3612,  3613,  3494,  3586,  6159,  6167,  6121,  6120
  2788,   763,   715,   730,   809,  1720,  1688,  1651,  1652,  5177,  5123,
        5001,  5267,  3519,  3467,  3346,  3609,  6132,  6100,  6063,  6064
*ELEMENT, TYPE=C3D15, ELSET=Eall
  2789,    10,     2,   104,   904,   900,  1197,  1800,  5270,  5262,
        1795,  3614,  3606,  2004,  1790,  5609
*ELEMENT, TYPE=C3D20, ELSET=Eall
  2790,   740,   785,   805,   761,  1703,  1740,  1753,  1718,  5227,  5271,
        5258,  5191,  3572,  3615,  3601,  3535,  6115,  6152,  6165,  6130
  2791,   747,   810,   801,   767,  1710,  1259,  1209,  1725,  5272,  4246,
        5251,  5187,  3616,  2588,  3594,  3530,  6122,  5671,  5621,  6137
  2792,   731,   769,   811,   758,  1695,  1726,  1756,  1717,  5193,  5274,
        5273,  5169,  3538,  3617,  3618,  3512,  6107,  6138,  6168,  6129
*ELEMENT, TYPE=C3D15, ELSET=Eall
  2793,   614,   807,   445,  1573,  1691,  1378,  5264,  5103,  4857,
        3608,  3446,  3202,  5985,  6103,  5790
*ELEMENT, TYPE=C3D20, ELSET=Eall
  2794,   104,     2,    11,   199,  1197,   900,   905,  1196,  5270,  1812,
        4842,  4127,  3614,  1802,  3187,  2472,  5609,  1790,  2005,  5608
  2795,   771,   795,   812,   773,  1581,  1582,  1636,  1633,  4872,  5275,
        4968,  5203,  3217,  3619,  3309,  3547,  5993,  5994,  6048,  6045
  2796,   793,   813,   798,   808,  1747,  1305,  1748,  1755,  5277,  5276,
        5265,  5269,  3620,  3621,  3611,  3612,  6159,  5717,  6160,  6167
  2797,   845,   867,   874,   894,  1731,  1758,  1757,  1734,  5280,  5279,
        5278,  5210,  3622,  3623,  3624,  3551,  6143,  6170,  6169,  6146
  2798,   751,   789,   814,   750,  1714,  1743,  1759,  1713,  5234,  5282,
        5281,  5158,  3580,  3625,  3626,  3502,  6126,  6155,  6171,  6125
  2799,   876,   893,   885,   875,  1760,  1761,  1316,  1321,  5285,  5284,
        4359,  5283,  3627,  3628,  2704,  3629,  6172,  6173,  5728,  5733
  2800,   759,   700,   701,   757,  1565,  1684,  1590,  1591,  5286,  5070,
        4883,  5170,  3630,  3414,  3229,  3514,  5977,  6096,  6002,  6003
  2801,   799,   810,   778,   779,  1749,  1259,  1736,  1737,  5288,  5287,
        5218,  5248,  3631,  3632,  3561,  3593,  6161,  5671,  6148,  6149
  2802,   762,   797,   782,   765,  1719,  1490,  1491,  1724,  5245,  4696,
        5223,  5184,  3591,  3041,  3566,  3527,  6131,  5902,  5903,  6136
  2803,   759,   772,   748,   700,  1565,  1566,  1711,  1684,  4840,  5216,
        5154,  5286,  3184,  3563,  3496,  3630,  5977,  5978,  6123,  6096
  2804,   770,   817,   816,   775,  1584,  1644,  1762,  1730,  5291,  5290,
        5289,  5206,  3633,  3634,  3635,  3549,  5996,  6056,  6174,  6142
*ELEMENT, TYPE=C3D15, ELSET=Eall
  2805,   611,   558,   559,  1567,  1509,  1510,  4999,  4732,  4847,
        3343,  3076,  3191,  5979,  5921,  5922
  2806,   552,   618,   549,  1497,  1579,  1489,  4866,  5292,  4807,
        3212,  3636,  3151,  5909,  5991,  5901
*ELEMENT, TYPE=C3D20, ELSET=Eall
  2807,   746,   808,   809,   720,  1709,  1755,  1652,  1653,  5268,  5266,
        5002,  5167,  3613,  3610,  3345,  3510,  6121,  6167,  6064,  6065
  2808,   750,   814,   818,   764,  1713,  1759,  1763,  1721,  5281,  5294,
        5293,  5179,  3626,  3637,  3638,  3522,  6125,  6171,  6175,  6133
  2809,   777,   820,   819,   776,  1533,  1647,  1646,  1735,  5296,  4991,
        5295,  5213,  3639,  3333,  3640,  3556,  5945,  6059,  6058,  6147
  2810,   764,   818,   804,   737,  1721,  1763,  1752,  1700,  5293,  5297,
        5256,  5214,  3638,  3641,  3598,  3558,  6133,  6175,  6164,  6112
  2811,   799,   806,   815,   810,  1749,  1754,  1258,  1259,  5260,  5298,
        4245,  5288,  3605,  3642,  2589,  3631,  6161,  6166,  5670,  5671
  2812,   818,   822,   821,   804,  1763,  1194,  1192,  1752,  5300,  4125,
        5299,  5297,  3643,  2467,  3644,  3641,  6175,  5606,  5604,  6164
  2813,   784,   824,   823,   783,  1739,  1657,  1304,  1738,  5302,  5018,
        5301,  5225,  3645,  3361,  3646,  3569,  6151,  6069,  5716,  6150
  2814,   780,   826,   825,   785,  1501,  1502,  1060,  1740,  4717,  5304,
        5303,  5228,  3063,  3647,  3648,  3571,  5913,  5914,  5472,  6152
  2815,   769,   734,   791,   811,  1726,  1697,  1745,  1756,  5306,  5237,
        5305,  5274,  3649,  3582,  3650,  3617,  6138,  6109,  6157,  6168
  2816,   787,   828,   827,   786,  1742,  1765,  1764,  1741,  5309,  5308,
        5307,  5230,  3651,  3652,  3653,  3574,  6154,  6177,  6176,  6153
** ... 22 like lines cut
*ELEMENT, TYPE=C3D15, ELSET=Eall
  2828,   608,   607,   528,  1563,  1561,  1562,  5328,  4830,  4833,
        3672,  3174,  3177,  5975,  5973,  5974
*ELEMENT, TYPE=C3D20, ELSET=Eall
  2829,   800,   841,   840,   781,  1210,  1773,  1204,  1503,  5330,  5329,
        4724,  5263,  3673,  3674,  3067,  3607,  5622,  6185,  5616,  5915
  2830,   553,   527,   486,   487,  1498,  1311,  1417,  1418,  4710,  5106,
        4556,  5323,  3053,  3449,  2900,  3667,  5910,  5723,  5829,  5830
  2831,   804,   821,   841,   803,  1752,  1192,  1773,  1751,  5299,  5332,
        5331,  5255,  3644,  3675,  3676,  3599,  6164,  5604,  6185,  6163
  2832,   798,   813,   842,   797,  1748,  1305,  1306,  1490,  5276,  4333,
        4695,  5246,  3621,  2676,  3042,  3590,  6160,  5717,  5718,  5902
  2833,   805,   843,   828,   787,  1753,  1061,  1765,  1742,  5334,  5333,
        5309,  5257,  3677,  3678,  3651,  3602,  6165,  5473,  6177,  6154
  2834,   652,   666,   607,   608,  1423,  1424,  1561,  1563,  4567,  4982,
        5328,  4935,  2913,  3326,  3672,  3281,  5835,  5836,  5973,  5975
  2835,   783,   823,   813,   793,  1738,  1304,  1305,  1747,  5301,  4332,
        5277,  5242,  3646,  2677,  3620,  3585,  6150,  5716,  5717,  6159
  2836,   782,   844,   835,   774,  1491,  1492,  1627,  1624,  4697,  5335,
        4954,  5222,  3040,  3679,  3295,  3567,  5903,  5904,  6039,  6036
  2837,   785,   825,   843,   805,  1740,  1060,  1061,  1753,  5303,  3870,
        5334,  5271,  3648,  2217,  3677,  3615,  6152,  5472,  5473,  6165
  2838,   889,   890,   873,   893,  1774,  1776,  1775,  1761,  5339,  5338,
        5337,  5336,  3680,  3681,  3682,  3683,  6186,  6188,  6187,  6173
** ... 14 like lines cut
*ELEMENT, TYPE=C3D15, ELSET=Eall
  2846,   383,   298,   296,  1728,  1211,  1302,  5350,  4328,  5200,
        3694,  2674,  3546,  6140,  5623,  5714
*ELEMENT, TYPE=C3D20, ELSET=Eall
  2847,   491,   305,   298,   383,  1663,  1218,  1211,  1728,  5021,  4169,
        5350,  5351,  3364,  2512,  3694,  3695,  6075,  5630,  5623,  6140
  2848,   847,   852,   846,   822,  1777,  1770,  1193,  1194,  5352,  5319,
        4124,  5344,  3696,  3663,  2468,  3688,  6189,  6182,  5605,  5606
  2849,   831,   852,   847,   830,  1768,  1770,  1777,  1767,  5353,  5352,
        5343,  5314,  3697,  3696,  3686,  3658,  6180,  6182,  6189,  6179
  2850,   831,   856,   857,   852,  1768,  1722,  1723,  1770,  5354,  5180,
        5318,  5353,  3698,  3526,  3664,  3697,  6180,  6134,  6135,  6182
  2851,   828,   854,   853,   827,  1765,  1781,  1780,  1764,  5357,  5356,
        5355,  5308,  3699,  3700,  3701,  3652,  6177,  6193,  6192,  6176
  2852,   827,   853,   855,   824,  1764,  1780,  1660,  1657,  5355,  5358,
        5014,  5310,  3701,  3702,  3355,  3654,  6176,  6192,  6072,  6069
  2853,   790,   829,   856,   831,  1744,  1766,  1722,  1768,  5311,  5359,
        5354,  5315,  3656,  3703,  3698,  3657,  6156,  6178,  6134,  6180
  2854,   803,   806,   756,   736,  1751,  1754,  1716,  1699,  5360,  5261,
        5174,  5254,  3704,  3604,  3518,  3600,  6163,  6166,  6128,  6111
  2855,   792,   833,   858,   832,  1746,  1771,  1398,  1769,  5321,  5362,
        5361,  5317,  3666,  3705,  3706,  3660,  6158,  6183,  5810,  6181
  2856,   810,   747,   748,   778,  1259,  1710,  1711,  1736,  5272,  5153,
        5217,  5287,  3616,  3497,  3562,  3632,  5671,  6122,  6123,  6148
  2857,   803,   839,   815,   806,  1751,  1208,  1258,  1754,  5347,  4244,
        5298,  5360,  3691,  2590,  3642,  3704,  6163,  5620,  5670,  6166
*ELEMENT, TYPE=C3D15, ELSET=Eall
  2858,   732,   802,   626,  1750,  1629,  1594,  5253,  4958,  5363,
        3596,  3302,  3707,  6162,  6041,  6006
*ELEMENT, TYPE=C3D20, ELSET=Eall
  2859,   834,   859,   837,   794,  1634,  1732,  1772,  1534,  5365,  5364,
        5326,  4971,  3708,  3709,  3669,  3316,  6046,  6144,  6184,  5946
  2860,   837,   860,   851,   820,  1772,  1782,  1642,  1647,  5367,  5366,
        4990,  5325,  3710,  3711,  3334,  3670,  6184,  6194,  6054,  6059
  2861,   871,   885,   893,   873,  1315,  1316,  1761,  1775,  4348,  5284,
        5337,  5368,  2694,  3628,  3682,  3712,  5727,  5728,  6173,  6187
  2862,   297,   615,   491,   383,  1729,  1662,  1663,  1728,  5369,  5020,
        5351,  5201,  3713,  3365,  3695,  3545,  6141,  6074,  6075,  6140
  2863,   472,   311,   382,   449,  1406,  1224,  1307,  1381,  4529,  4336,
        4477,  5127,  2872,  2681,  2821,  3471,  5818,  5636,  5719,  5793
  2864,   892,   874,   880,   877,  1001,  1757,  1784,  1783,  5373,  5372,
        5371,  5370,  3714,  3715,  3716,  3717,  5413,  6169,  6196,  6195
  2865,   843,   863,   854,   828,  1061,  1062,  1781,  1765,  3871,  5374,
        5357,  5333,  2216,  3718,  3699,  3678,  5473,  5474,  6193,  6177
  2866,   294,   300,   258,   200,  1206,  1213,  1164,  1106,  4351,  4161,
        4068,  4150,  2697,  2503,  2411,  2496,  5618,  5625,  5576,  5518
  2867,   816,   848,   865,   833,  1762,  1778,  1785,  1771,  5345,  5376,
        5375,  5322,  3690,  3719,  3720,  3665,  6174,  6190,  6197,  6183
  2868,   732,   626,   562,   609,  1750,  1594,  1513,  1564,  5363,  4888,
        4837,  5377,  3707,  3230,  3181,  3721,  6162,  6006,  5925,  5976
** ... 8 like lines cut
*ELEMENT, TYPE=C3D15, ELSET=Eall
  2873,   840,   841,   821,  1204,  1773,  1192,  5329,  5332,  4146,
        3674,  3675,  2492,  5616,  6185,  5604
*ELEMENT, TYPE=C3D20, ELSET=Eall
  2874,   875,   886,   892,   877,  1321,   998,  1001,  1783,  4360,  3757,
        5370,  5381,  2703,  2103,  3717,  3725,  5733,  5410,  5413,  6195
  2875,   618,   677,   670,   642,  1579,  1665,  1666,  1267,  5028,  5116,
        5031,  5382,  3373,  3462,  3377,  3726,  5991,  6077,  6078,  5679
  2876,   832,   858,   869,   850,  1769,  1398,  1399,  1779,  5361,  4510,
        5383,  5349,  3706,  2856,  3727,  3692,  6181,  5810,  5811,  6191
  2877,   864,   870,   867,   844,  1727,  1787,  1758,  1492,  5385,  5384,
        5378,  5197,  3728,  3729,  3722,  3542,  6139,  6199,  6170,  5904
  2878,   549,   618,   642,   548,  1489,  1579,  1267,  1488,  5292,  5382,
        4919,  4693,  3636,  3726,  3263,  3037,  5901,  5991,  5679,  5900
  2879,   845,   859,   834,   836,  1731,  1732,  1634,  1635,  5207,  5365,
        4966,  5340,  3554,  3708,  3311,  3685,  6143,  6144,  6046,  6047
  2880,   851,   872,   871,   849,  1642,  1000,  1315,  1645,  5387,  4350,
        5386,  4986,  3730,  2692,  3731,  3327,  6054,  5412,  5727,  6057
  2881,   874,   892,   891,   894,  1757,  1001,  1002,  1734,  5373,  3758,
        5388,  5278,  3714,  2102,  3732,  3624,  6169,  5413,  5414,  6146
  2882,   829,   868,   881,   856,  1766,  1786,  1408,  1722,  5379,  5389,
        5196,  5359,  3724,  3733,  3539,  3703,  6178,  6198,  5820,  6134
  2883,   465,   402,   403,   466,  1397,  1335,  1336,  1696,  4541,  4382,
        5128,  5390,  2884,  2726,  3470,  3734,  5809,  5747,  5748,  6108
  2884,   849,   871,   873,   848,  1645,  1315,  1775,  1778,  5386,  5368,
        5391,  5346,  3731,  3712,  3735,  3689,  6057,  5727,  6187,  6190
*ELEMENT, TYPE=C3D15, ELSET=Eall
  2885,   894,   891,   883,  1734,  1002,  1733,  5388,  5392,  5209,
        3732,  3736,  3552,  6146,  5414,  6145
*ELEMENT, TYPE=C3D20, ELSET=Eall
  2886,   376,   465,   466,   377,  1297,  1397,  1696,  1298,  4508,  5390,
        5204,  4321,  2853,  3734,  3548,  2664,  5709,  5809,  6108,  5710
  2887,   392,   489,   528,   440,  1324,  1421,  1562,  1373,  4563,  4832,
        4831,  5393,  2908,  3178,  3173,  3737,  5736,  5833,  5974,  5785
  2888,   854,   876,   875,   853,  1781,  1760,  1321,  1780,  5395,  5283,
        5394,  5356,  3738,  3629,  3739,  3700,  6193,  6172,  5733,  6192
  2889,   853,   875,   877,   855,  1780,  1321,  1783,  1660,  5394,  5381,
        5396,  5358,  3739,  3725,  3740,  3702,  6192,  5733,  6195,  6072
  2890,   865,   878,   858,   833,  1785,  1400,  1398,  1771,  5397,  4512,
        5362,  5375,  3741,  2854,  3705,  3720,  6197,  5812,  5810,  6183
  2891,   860,   879,   872,   851,  1782,   999,  1000,  1642,  5398,  3755,
        5387,  5366,  3742,  2099,  3730,  3711,  6194,  5411,  5412,  6054
*ELEMENT, TYPE=C3D15, ELSET=Eall
  2892,   673,   735,   706,  1655,  1698,  1462,  5188,  5132,  5078,
        3534,  3475,  3421,  6067,  6110,  5874
*ELEMENT, TYPE=C3D20, ELSET=Eall
  2893,   870,   880,   874,   867,  1787,  1784,  1757,  1758,  5399,  5372,
        5279,  5384,  3743,  3715,  3623,  3729,  6199,  6196,  6169,  6170
  2894,   869,   881,   868,   850,  1399,  1408,  1786,  1779,  4532,  5389,
        5380,  5383,  2878,  3733,  3723,  3727,  5811,  5820,  6198,  6191
  2895,   863,   882,   876,   854,  1062,  1788,  1760,  1781,  5401,  5400,
        5395,  5374,  3744,  3745,  3738,  3718,  5474,  6200,  6172,  6193
  2896,   354,   392,   440,   353,  1273,  1324,  1373,  1272,  4364,  5393,
        4459,  4269,  2710,  3737,  2802,  2613,  5685,  5736,  5785,  5684
  2897,   859,   883,   860,   837,  1732,  1733,  1782,  1772,  5208,  5402,
        5367,  5364,  3553,  3746,  3710,  3709,  6144,  6145,  6194,  6184
  2898,   864,   861,   884,   870,  1727,  1303,  1658,  1787,  5198,  5017,
        5403,  5385,  3541,  3362,  3747,  3728,  6139,  5715,  6070,  6199
  2899,   293,   386,   304,   238,  1254,  1333,  1217,  1144,  4378,  4472,
        4167,  5404,  2724,  2819,  2509,  3748,  5666,  5745,  5629,  5556
  2900,   237,   293,   238,   239,  1143,  1254,  1144,  1145,  4237,  5404,
        4032,  4140,  2582,  3748,  2376,  2483,  5555,  5666,  5556,  5557
  2901,   297,   285,   380,   615,  1729,  1191,  1301,  1662,  5211,  4326,
        5019,  5369,  3555,  2671,  3366,  3713,  6141,  5603,  5713,  6074
  2902,   863,   866,   887,   882,  1062,  1063,  1409,  1788,  3872,  5195,
        5405,  5401,  2215,  3540,  3749,  3744,  5474,  5475,  5821,  6200
** ... 10 like lines cut
*ELEMENT, TYPE=C3D15, ELSET=Eall
  2908,   734,   769,   733,  1697,  1726,  1277,  5306,  5194,  5129,
        3649,  3537,  3474,  6109,  6138,  5689
*ELEMENT, TYPE=C3D20, ELSET=Eall
  2909,   882,   889,   893,   876,  1788,  1774,  1761,  1760,  5407,  5336,
        5285,  5400,  3752,  3683,  3627,  3745,  6200,  6186,  6173,  6172
*ELEMENT, TYPE=C3D15, ELSET=Eall
  2910,   735,   768,   724,  1698,  1589,  1585,  5189,  4882,  5131,
        3533,  3224,  3476,  6110,  6001,  5997
*ELEMENT, TYPE=C3D20, ELSET=Eall
  2911,   479,   523,   556,   707,  1104,  1457,  1507,  1044,  4628,  4728,
        5119,  3952,  2973,  3074,  3464,  2298,  5516,  5869,  5919,  5456
  2912,   865,   890,   889,   878,  1785,  1776,  1774,  1400,  5409,  5339,
        5408,  5397,  3753,  3680,  3751,  3741,  6197,  6188,  6186,  5812
  2913,   883,   891,   879,   860,  1733,  1002,   999,  1782,  5392,  3759,
        5398,  5402,  3736,  2101,  3742,  3746,  6145,  5414,  5411,  6194
** Names based on C3D15
*ELSET,ELSET=C3D15 
2048, 
2090, 
2226, 
2240, 
2289, 
2298, 
2328, 
2331, 
2380, 
2405, 
2434, 
2466, 
2481, 
2500, 
2502, 
2507, 
2538, 
2563, 
2576, 
2579, 
** ... 29 like lines cut
** Names based on fix-base
*NSET,NSET=fix-base 
1, 
6, 
65, 
66, 
67, 
68, 
69, 
70, 
71, 
72, 
73, 
74, 
75, 
76, 
77, 
78, 
79, 
80, 
81, 
82, 
** ... 183 like lines cut
** Names based on side
*NSET,NSET=side 
1, 
2, 
3, 
4, 
5, 
6, 
7, 
8, 
9, 
10, 
11, 
12, 
13, 
14, 
15, 
16, 
17, 
18, 
19, 
20, 
** ... 5286 like lines cut
** Names based on C3D20
*ELSET,ELSET=C3D20 
2049, 
2050, 
2051, 
2052, 
2053, 
2054, 
2055, 
2056, 
2057, 
2058, 
2059, 
2060, 
2061, 
2062, 
2063, 
2064, 
2065, 
2066, 
2067, 
2068, 
** ... 797 like lines cut
** Names based on fix-x
*NSET,NSET=fix-x 
1, 
2, 
5, 
6, 
7, 
8, 
9, 
10, 
51, 
52, 
53, 
54, 
55, 
56, 
57, 
58, 
59, 
60, 
61, 
62, 
** ... 86 like lines cut
** Surfaces based on C3D15
*SURFACE, NAME=C3D15
** Surfaces based on side
*SURFACE, NAME=side
2146, S1
2789, S1
2794, S1
2134, S1
2133, S1
2143, S1
2111, S1
2191, S1
2181, S1
2051, S1
2050, S1
2781, S1
2783, S1
2563, S1
2141, S1
2569, S1
2140, S1
2139, S1
2138, S1
2137, S1
** ... 1712 like lines cut
** Surfaces based on fix-base
*SURFACE, NAME=fix-base
2146, S5
2181, S6
2089, S6
2088, S6
2087, S6
2086, S6
2085, S6
2084, S6
2083, S6
2082, S6
2081, S6
2080, S6
2079, S6
2078, S6
2077, S6
2076, S6
2075, S6
2074, S6
2073, S6
2072, S6
** ... 20 like lines cut
** Surfaces based on all
*SURFACE, NAME=all
2146, S1
2146, S6
2146, S5
2789, S1
2789, S3
2794, S1
2794, S4
2134, S1
2134, S6
2133, S1
2133, S6
2143, S1
2143, S5
2111, S1
2111, S6
2191, S1
2191, S5
2191, S6
2181, S1
2181, S5
** ... 1815 like lines cut
** Surfaces based on fix-x
*SURFACE, NAME=fix-x
2146, S6
2789, S3
2191, S6
2181, S5
2051, S6
2050, S6
2781, S3
2102, S6
2101, S6
2100, S6
2099, S6
2098, S6
2097, S6
2096, S6
2095, S6
2094, S6
2093, S6
2092, S6
2091, S6
2770, S3
** Surfaces based on C3D20
*SURFACE, NAME=C3D20

*MATERIAL,NAME=ABAQUS_soil
*USER MATERIAL, CONSTANTS=5 
20000000,0.26,8700,10.35,10.35

*DENSITY
1.5000E+03
*EXPANSION
0.0000E+00

*SOLID SECTION,MATERIAL=ABAQUS_soil,ELSET=Eall

*BOUNDARY
fix-x,1,1,0

*BOUNDARY
fix-base,1,1,0
fix-base,2,2,0
fix-base,3,3,0

*BOUNDARY
side,3,3,0



*STEP,NLGEOM,INC=100
*STATIC
0.1,1
*DLOAD
Eall,GRAV,9.8100E+00,0,-1,0
  *NODE FILE 
U,
  *EL FILE
S,
*NODE PRINT,NSET=fix-x
RF
*NODE PRINT,NSET=fix-base
RF
*NODE PRINT,NSET=side
RF
*END STEP
