** Contact of bolted plates
** This is simulation of friction type of bolted connection
**https://youtu.be/9SJpHRY5GXs
**<img src="onebolt.jpg">

*NODE, NSET=Nall
       1,6.717514000000e-02,3.000000000000e-01,-6.717514000000e-02
       2,1.060660000000e-01,3.500000000000e-01,-1.060660000000e-01
       3,8.131728000000e-02,3.000000000000e-01,-5.303301000000e-02
       4,1.202082000000e-01,3.500000000000e-01,-9.192388000000e-02
       5,1.202082000000e-01,1.664250334765e-17,-9.192388000000e-02
       6,1.060660000000e-01,1.664250334765e-17,-1.060660000000e-01
       7,-3.937009138838e-18,3.500000000000e-01,1.182457994367e-18
       8,1.414214000000e-02,3.500000000000e-01,1.414214000000e-02
       9,-3.937009138838e-18,1.664250334765e-17,1.182457994367e-18
      10,1.414214000000e-02,1.664250334765e-17,1.414214000000e-02
      11,7.969738000000e-02,3.092945000000e-01,-5.141311000000e-02
      12,7.520879000000e-02,3.164597000000e-01,-4.692452000000e-02
      13,6.887979000000e-02,3.198542000000e-01,-4.059552000000e-02
      14,6.216027000000e-02,3.187003000000e-01,-3.387600000000e-02
      15,5.658960000000e-02,3.132625000000e-01,-2.830533000000e-02
      16,5.344395000000e-02,3.047863000000e-01,-2.515968000000e-02
      17,5.344395000000e-02,2.952137000000e-01,-2.515968000000e-02
      18,5.658960000000e-02,2.867375000000e-01,-2.830533000000e-02
      19,6.216027000000e-02,2.812997000000e-01,-3.387600000000e-02
      20,6.887979000000e-02,2.801458000000e-01,-4.059552000000e-02
** ... 16306 like lines cut
*ELEMENT, TYPE=C3D10, ELSET=Eall
  3027,   366,  1385,   844,   845, 11208, 11207, 11206, 11209, 11210,  3577 
  3028,  1239,  1279,   771,   731,  4944, 11212, 11211, 11213, 11214,  6827 
  3029,   277,   107,   106,  1362,  5271,  2864,  5272, 11215,  3357,  3356 
  3030,   570,   592,  1191,  1132,  6234, 11217, 11216, 11218, 11219,  4659 
  3031,   115,  1384,   365,   116,  3453, 11220,  5502,  2873,  3410,  5501 
  3032,   317,   890,   318,   423, 11222, 11221,  5376,  5702, 11223,  5703 
  3033,   859,  1375,   290,  1392, 11226, 11225, 11224, 11227,  3436, 11228 
  3034,   260,   933,   437,   897, 11231, 11230, 11229, 11232,  3843, 11233 
  3035,   288,   855,   469,   856, 11235, 11234,  5832, 11236,  3610, 11237 
  3036,   429,   252,   929,   893, 11240, 11239, 11238, 11241, 11242,  3839 
  3037,   965,   396,   964,   858, 11244, 11243,  3943,  3941, 11245,  3939 
  3038,   729,  1288,  1289,  1248, 11247,  4974, 11246, 11248,  4970,  4972 
  3039,  1390,   205,   204,   855,  3431,  2848,  3315, 11249,  3606,  3605 
  3040,   962,  1066,   553,  1067,  4251, 11251, 11250,  4253,  4255, 11252 
  3041,  1203,   677,  1204,  1251, 11254, 11253,  4699,  4854, 11255,  4855 
  3042,   893,  1031,  1026,   429,  4129,  4163,  4109, 11241, 11257, 11256 
  3043,   252,   429,   428,   893, 11240,  5722, 11258, 11242, 11241, 11259 
  3044,   881,  1348,   919,   218, 11261, 11260,  3769,  3685,  3492,  3767 
  3045,   657,  1154,  1168,  1188, 11263,  4620, 11262, 11264,  4653,  4652 
  3046,   773,  1233,  1401,   702, 11267, 11266, 11265,  6832, 11269, 11268 
** ... 7866 like lines cut
** Names based on nut
*NSET,NSET=nut 
1414, 
1422, 
1423, 
1424, 
1425, 
1426, 
1427, 
1428, 
1429, 
1430, 
1431, 
1432, 
1433, 
3216, 
3217, 
3218, 
3219, 
3220, 
3221, 
3222, 
** ... 6 like lines cut
** Names based on master
*NSET,NSET=master 
1412, 
1413, 
1417, 
1418, 
1420, 
1435, 
1436, 
1437, 
1438, 
1439, 
1440, 
1441, 
1442, 
1443, 
1444, 
1445, 
1446, 
1483, 
1484, 
1485, 
** ... 2503 like lines cut
** Names based on fix
*NSET,NSET=fix 
5, 
6, 
9, 
10, 
36, 
154, 
155, 
156, 
157, 
158, 
159, 
160, 
161, 
162, 
163, 
164, 
165, 
166, 
167, 
217, 
** ... 135 like lines cut
** Names based on slave
*NSET,NSET=slave 
3, 
4, 
5, 
8, 
10, 
11, 
12, 
13, 
14, 
15, 
16, 
17, 
18, 
19, 
20, 
21, 
22, 
37, 
38, 
39, 
** ... 2375 like lines cut
** Names based on load
*NSET,NSET=load 
1416, 
1417, 
1420, 
1421, 
1447, 
1565, 
1566, 
1567, 
1568, 
1569, 
1570, 
1571, 
1572, 
1573, 
1574, 
1575, 
1576, 
1577, 
1578, 
1628, 
** ... 135 like lines cut
** Names based on head
*NSET,NSET=head 
1, 
24, 
25, 
26, 
27, 
28, 
29, 
30, 
31, 
32, 
33, 
34, 
35, 
3045, 
3046, 
3047, 
3048, 
3049, 
3050, 
3051, 
** ... 6 like lines cut
** Names based on C3D10
*ELSET,ELSET=C3D10 
3027, 
3028, 
3029, 
3030, 
3031, 
3032, 
3033, 
3034, 
3035, 
3036, 
3037, 
3038, 
3039, 
3040, 
3041, 
3042, 
3043, 
3044, 
3045, 
3046, 
** ... 7866 like lines cut
** Surfaces based on nut
*SURFACE, NAME=nut
** Surfaces based on head
*SURFACE, NAME=head
** Surfaces based on slave
*SURFACE, NAME=slave
3982, S4
5453, S4
5427, S1
5786, S3
3978, S4
5734, S3
3161, S2
3159, S3
5673, S1
6706, S1
6959, S3
6952, S1
6669, S1
6955, S1
6956, S4
4013, S3
6963, S1
6486, S2
6967, S3
6965, S1
** ... 1121 like lines cut
** Surfaces based on all
*SURFACE, NAME=all
6938, S1
6941, S4
5035, S4
5565, S4
6939, S1
5975, S1
5975, S3
5974, S1
3898, S1
5974, S2
6943, S4
3982, S4
6942, S1
5453, S4
5427, S1
5786, S3
5786, S1
6802, S4
6802, S3
6123, S2
** ... 5568 like lines cut
** Surfaces based on load
*SURFACE, NAME=load
12502, S2
10163, S1
12830, S4
13714, S4
12696, S2
10154, S2
12343, S3
12702, S3
10653, S4
13537, S3
12453, S4
13469, S2
11753, S1
13390, S2
10197, S4
11759, S1
11807, S4
11789, S1
12686, S4
11798, S4
** ... 40 like lines cut
** Surfaces based on master
*SURFACE, NAME=master
13916, S3
13487, S1
12576, S1
11496, S4
10948, S1
13714, S1
11781, S1
10098, S3
12696, S1
13494, S3
13681, S4
13450, S1
13471, S1
13428, S1
13318, S1
13926, S1
13296, S4
13458, S3
13276, S2
13281, S1
** ... 1185 like lines cut
** Surfaces based on fix
*SURFACE, NAME=fix
3979, S4
5734, S1
3070, S4
3878, S1
4717, S2
5673, S2
3801, S2
4873, S2
5860, S4
5487, S1
6481, S1
6484, S4
4063, S1
3831, S2
5915, S1
3569, S1
4535, S4
4030, S1
6699, S4
5859, S4
** ... 40 like lines cut
** Surfaces based on C3D10
*SURFACE, NAME=C3D10
*MATERIAL,NAME=steel
*ELASTIC
2.0000E+11,0.28
*DENSITY
7.8500E+03

*SOLID SECTION,MATERIAL=steel,ELSET=Eall

*NODE
101001,0,0,0
*NSET,NSET=DC_1_nut
101001
*ELEMENT,TYPE=DCOUP3D
100001,101001
*ELSET,ELSET=DC_1_nut
100001
*DISTRIBUTING COUPLING,ELSET=DC_1_nut
nut,1

*NODE
101002,0,0,0
*NSET,NSET=DC_2_head
101002
*ELEMENT,TYPE=DCOUP3D
100002,101002
*ELSET,ELSET=DC_2_head
100002
*DISTRIBUTING COUPLING,ELSET=DC_2_head
head,1

*BOUNDARY
fix,1,1,0
fix,2,2,0
fix,3,3,0

*BOUNDARY
load,1,1,0
load,2,2,0
load,3,3,0

*CONTACT PAIR,INTERACTION=SI1,TYPE=SURFACE TO SURFACE
slave,master
*SURFACE INTERACTION,NAME=SI1
*SURFACE BEHAVIOR,PRESSURE-OVERCLOSURE=Linear
10000000000000,0

*FRICTION
0.1,1000000000000

*NODE
102001,0,0,0
102002,0.081317,0.3,-0.024749
102003,0.053033,0.3,-0.053033
102004,0,0,0

*ELEMENT, TYPE=B31, ELSET=Ebolt0
101001,102002,102003

*BEAM SECTION,ELSET=Ebolt0,MATERIAL=steel,SECTION=CIRC
0.024,0.024

*EQUATION
2
101001,1,1.,102002,1,-1.
2
101001,2,1.,102002,2,-1.
2
101001,3,1.,102002,3,-1.
*EQUATION
2
101002,1,1.,102003,1,-1.
2
101002,2,1.,102003,2,-1.
2
101002,3,1.,102003,3,-1.

*PRE-TENSION SECTION,ELEMENT=101001,NODE=102004
-0.707106781186548,0,-0.707106781186547

*STEP
*STATIC
*CLOAD
102004,1,1000

*NODE FILE
U
*EL FILE
S
*END STEP

*STEP
*STATIC
  *NODE FILE 
U,
  *EL FILE
S,
*NODE PRINT,NSET=fix
RF
*NODE PRINT,NSET=load
RF
*END STEP
