*include, input=all.msh
*include, input=N1.nam
*include, input=N2.nam
*include, input=SPC.nam
*include, input=slave.sur
*include, input=master.sur
*MATERIAL,NAME=STEEL
*ELASTIC
210000.,.3
*DENSITY
7.8E-9
*EXPANSION
12.E-6
*SOLID SECTION,ELSET=Eall,MATERIAL=STEEL
*CONTACT PAIR,INTERACTION=I1,TYPE=SURFACE TO SURFACE
Sslave,Smaster
*SURFACE INTERACTION,NAME=I1
*SURFACE BEHAVIOR,PRESSURE-OVERCLOSURE=LINEAR
1.E7,3.
*INITIAL CONDITIONS,TYPE=TEMPERATURE
Nall,273.
*BOUNDARY
NSPC,2,2
*STEP,NLGEOM
*STATIC
*TEMPERATURE
NN1,1000.
*NODE FILE,FREQUENCY=99
U
*EL FILE,FREQUENCY=99, POSITION=AVERAGED AT NODES
S
*END STEP
*STEP,NLGEOM
*STATIC
*TEMPERATURE
NN1,1100.
*NODE FILE,FREQUENCY=99
U
*EL FILE,FREQUENCY=99, POSITION=AVERAGED AT NODES
S
*END STEP
*STEP,NLGEOM
*STATIC
*TEMPERATURE
NN1,1200.
*NODE FILE,FREQUENCY=99
U
*EL FILE,FREQUENCY=99, POSITION=AVERAGED AT NODES
S
*END STEP
*STEP,NLGEOM
*STATIC
*TEMPERATURE
NN1,900.
*NODE FILE,FREQUENCY=99
U
*EL FILE,FREQUENCY=99, POSITION=AVERAGED AT NODES
S
*END STEP
