**Building with removed column
** Static and dynamic problem in 2 steps
**<img src="remsup.png">

*NODE, NSET=Nall
       1,-6.000000000000e+00,-6.000000000000e+00,3.000000000000e+00
       2,-6.000000000000e+00,6.000000000000e+00,3.000000000000e+00
       3,6.000000000000e+00,-6.000000000000e+00,3.000000000000e+00
       4,6.000000000000e+00,6.000000000000e+00,3.000000000000e+00
       5,0.000000000000e+00,-5.750000000000e+00,3.000000000000e+00
       6,0.000000000000e+00,-5.500000000000e+00,3.000000000000e+00
       7,0.000000000000e+00,-1.250000000000e-01,3.000000000000e+00
       8,0.000000000000e+00,1.250000000000e-01,3.000000000000e+00
       9,5.750000000000e+00,5.500000000000e+00,3.000000000000e+00
      10,5.750000000000e+00,5.750000000000e+00,3.000000000000e+00
      11,5.750000000000e+00,-1.250000000000e-01,3.000000000000e+00
      12,5.750000000000e+00,1.250000000000e-01,3.000000000000e+00
      13,-5.750000000000e+00,-5.750000000000e+00,3.000000000000e+00
      14,-5.750000000000e+00,-5.500000000000e+00,3.000000000000e+00
      15,-5.750000000000e+00,5.500000000000e+00,3.000000000000e+00
      16,-5.750000000000e+00,5.750000000000e+00,3.000000000000e+00
      17,0.000000000000e+00,5.500000000000e+00,3.000000000000e+00
      18,0.000000000000e+00,5.750000000000e+00,3.000000000000e+00
      19,-5.750000000000e+00,-1.250000000000e-01,3.000000000000e+00
      20,-5.750000000000e+00,1.250000000000e-01,3.000000000000e+00
** ... 5098 like lines cut
*ELEMENT, TYPE=S8, ELSET=Eall
   436,      2,     16,     15,     85,   2193,   1858,   2192,   1780
   437,     85,     15,    427,     84,   2192,   2195,   2194,   1779
   438,     84,    427,    428,     83,   2194,   2197,   2196,   1778
   439,     83,    428,    429,     82,   2196,   2199,   2198,   1777
   440,     82,    429,    430,     81,   2198,   2201,   2200,   1776
   441,     81,    430,    431,     80,   2200,   2203,   2202,   1775
   442,     80,    431,    432,     79,   2202,   2205,   2204,   1774
   443,     79,    432,    433,     78,   2204,   2207,   2206,   1773
   444,     78,    433,    434,     77,   2206,   2209,   2208,   1772
   445,     77,    434,    435,     76,   2208,   2211,   2210,   1771
   446,     76,    435,    436,     75,   2210,   2213,   2212,   1770
   447,     75,    436,     20,     74,   2212,   2215,   2214,   1769
   448,     74,     19,    437,     73,   2218,   2217,   2216,   1768
   449,     73,    437,    438,     72,   2216,   2220,   2219,   1767
   450,     72,    438,    439,     71,   2219,   2222,   2221,   1766
   451,     71,    439,    440,     70,   2221,   2224,   2223,   1765
   452,     70,    440,    441,     69,   2223,   2226,   2225,   1764
   453,     69,    441,    442,     68,   2225,   2228,   2227,   1763
   454,     68,    442,    443,     67,   2227,   2230,   2229,   1762
   455,     67,    443,    444,     66,   2229,   2232,   2231,   1761
** ... 26 like lines cut
*ELEMENT, TYPE=S6, ELSET=Eall
   482,   1083,   1009,   1058,   2286,   2285,   2284
*ELEMENT, TYPE=S8, ELSET=Eall
   483,      3,     21,     22,    132,   2288,   1861,   2287,   1829
   484,    132,     22,    468,    133,   2287,   2290,   2289,   1830
   485,    133,    468,    469,    134,   2289,   2292,   2291,   1831
   486,    134,    469,    470,    135,   2291,   2294,   2293,   1832
   487,    135,    470,    471,    136,   2293,   2296,   2295,   1833
   488,    136,    471,    472,    137,   2295,   2298,   2297,   1834
   489,    137,    472,    473,    138,   2297,   2300,   2299,   1835
   490,    138,    473,    474,    139,   2299,   2302,   2301,   1836
   491,    139,    474,    475,    140,   2301,   2304,   2303,   1837
   492,    140,    475,    476,    141,   2303,   2306,   2305,   1838
   493,    141,    476,    477,    142,   2305,   2308,   2307,   1839
   494,    142,    477,     11,    143,   2307,   2310,   2309,   1840
   495,    143,     12,    478,    144,   2313,   2312,   2311,   1841
   496,    144,    478,    479,    145,   2311,   2315,   2314,   1842
   497,    145,    479,    480,    146,   2314,   2317,   2316,   1843
   498,    146,    480,    481,    147,   2316,   2319,   2318,   1844
   499,    147,    481,    482,    148,   2318,   2321,   2320,   1845
   500,    148,    482,    483,    149,   2320,   2323,   2322,   1846
   501,    149,    483,    484,    150,   2322,   2325,   2324,   1847
   502,    150,    484,    485,    151,   2324,   2327,   2326,   1848
** ... 43 like lines cut
*ELEMENT, TYPE=S6, ELSET=Eall
   546,   1044,   1060,   1075,   2423,   2422,   2421
*ELEMENT, TYPE=S8, ELSET=Eall
   547,    477,    533,    517,     11,   2425,   2424,   2396,   2310
   548,     12,    516,    534,    478,   2394,   2427,   2426,   2312
   549,    487,    535,    515,      9,   2429,   2428,   2393,   2333
   550,    509,    536,    529,      6,   2431,   2430,   2417,   2382
   551,   1044,   1075,   1085,   1021,   2421,   2434,   2433,   2432
   552,    513,    539,    538,      7,   2437,   2436,   2435,   2389
   553,    530,    540,    514,      8,   2439,   2438,   2391,   2418
   554,    538,    541,    512,      7,   2441,   2440,   2388,   2435
   555,    520,    542,    527,     17,   2443,   2442,   2414,   2401
   556,    428,    544,    543,    429,   2446,   2445,   2444,   2199
   557,    429,    543,    545,    430,   2444,   2448,   2447,   2201
   558,    430,    545,    546,    431,   2447,   2450,   2449,   2203
   559,    431,    546,    547,    432,   2449,   2452,   2451,   2205
   560,    432,    547,    548,    433,   2451,   2454,   2453,   2207
   561,    433,    548,    549,    434,   2453,   2456,   2455,   2209
   562,    434,    549,    550,    435,   2455,   2458,   2457,   2211
   563,    435,    550,    523,    436,   2457,   2459,   2407,   2213
   564,    437,    524,    551,    438,   2408,   2461,   2460,   2220
   565,    440,    553,    552,    441,   2464,   2463,   2462,   2226
   566,    441,    552,    554,    442,   2462,   2466,   2465,   2228
** ... 22 like lines cut
*ELEMENT, TYPE=S6, ELSET=Eall
   589,    959,    878,    879,   2513,   2512,   2511
*ELEMENT, TYPE=S8, ELSET=Eall
   590,    469,    559,    577,    470,   2476,   2515,   2514,   2294
   591,    470,    577,    578,    471,   2514,   2517,   2516,   2296
   592,    471,    578,    579,    472,   2516,   2519,   2518,   2298
   593,    472,    579,    580,    473,   2518,   2521,   2520,   2300
   594,    473,    580,    581,    474,   2520,   2523,   2522,   2302
   595,    474,    581,    582,    475,   2522,   2525,   2524,   2304
   596,    475,    582,    583,    476,   2524,   2527,   2526,   2306
   597,    476,    583,    533,    477,   2526,   2528,   2425,   2308
   598,    478,    534,    584,    479,   2426,   2530,   2529,   2315
   599,    481,    586,    585,    482,   2533,   2532,   2531,   2321
   600,    482,    585,    587,    483,   2531,   2535,   2534,   2323
   601,    483,    587,    588,    484,   2534,   2537,   2536,   2325
   602,    484,    588,    589,    485,   2536,   2539,   2538,   2327
   603,    485,    589,    590,    486,   2538,   2541,   2540,   2329
   604,    486,    590,    535,    487,   2540,   2542,   2429,   2331
   605,    488,    515,    591,    489,   2392,   2544,   2543,   2338
   606,    490,    593,    592,    491,   2547,   2546,   2545,   2342
   607,    491,    592,    594,    492,   2545,   2549,   2548,   2344
   608,    492,    594,    595,    493,   2548,   2551,   2550,   2346
   609,    493,    595,    596,    494,   2550,   2553,   2552,   2348
** ... 30 like lines cut
*ELEMENT, TYPE=S6, ELSET=Eall
   640,    813,    713,    714,   2617,   2616,   2615
*ELEMENT, TYPE=S8, ELSET=Eall
   641,    533,    626,    612,    517,   2619,   2618,   2585,   2424
   642,    535,    627,    591,    515,   2621,   2620,   2544,   2428
   643,    536,    629,    628,    529,   2624,   2623,   2622,   2430
   644,    599,    630,    542,    520,   2626,   2625,   2443,   2560
   645,    519,    526,    631,    600,   2412,   2628,   2627,   2562
   646,    613,    632,    524,    521,   2630,   2629,   2409,   2588
   647,    609,    633,    531,    511,   2632,   2631,   2420,   2580
   648,    813,    714,    684,    783,   2615,   2635,   2634,   2633
   649,    539,    635,    634,    538,   2638,   2637,   2636,   2436
   650,    611,    636,    534,    516,   2640,   2639,   2427,   2583
   651,    530,    638,    637,    540,   2643,   2642,   2641,   2439
   652,    522,    523,    639,    614,   2406,   2645,   2644,   2590
   653,    542,    640,    622,    527,   2647,   2646,   2608,   2442
   654,    514,    540,    641,    618,   2438,   2649,   2648,   2601
   655,    538,    634,    642,    541,   2636,   2651,   2650,   2441
   656,    529,    628,    643,    528,   2622,   2653,   2652,   2416
   657,    531,    644,    638,    530,   2655,   2654,   2643,   2419
   658,    543,    646,    645,    545,   2658,   2657,   2656,   2448
   659,    547,    648,    647,    548,   2661,   2660,   2659,   2454
   660,    548,    647,    649,    549,   2659,   2663,   2662,   2456
*ELEMENT, TYPE=S6, ELSET=Eall
   661,    938,    826,    730,   2666,   2665,   2664
*ELEMENT, TYPE=S8, ELSET=Eall
   662,    550,    651,    639,    523,   2668,   2667,   2645,   2459
   663,    524,    632,    652,    551,   2629,   2670,   2669,   2461
   664,    555,    654,    653,    556,   2673,   2672,   2671,   2470
   665,    554,    655,    654,    555,   2675,   2674,   2673,   2468
   666,    553,    657,    656,    552,   2678,   2677,   2676,   2463
   667,    552,    656,    655,    554,   2676,   2679,   2675,   2466
   668,    556,    653,    658,    557,   2671,   2681,   2680,   2472
   669,    557,    658,    620,    525,   2680,   2682,   2605,   2473
   670,    563,    660,    659,    564,   2685,   2684,   2683,   2487
   671,    614,    662,    661,    613,   2688,   2687,   2686,   2589
   672,    577,    664,    663,    578,   2691,   2690,   2689,   2517
   673,    561,    666,    665,    560,   2694,   2693,   2692,   2480
   674,    560,    665,    667,    562,   2692,   2696,   2695,   2483
   675,    564,    659,    668,    565,   2683,   2698,   2697,   2489
   676,    565,    668,    669,    566,   2697,   2700,   2699,   2491
   677,    566,    669,    670,    567,   2699,   2702,   2701,   2493
   678,    578,    663,    671,    579,   2689,   2704,   2703,   2519
   679,    570,    673,    672,    571,   2707,   2706,   2705,   2502
   680,    571,    672,    674,    572,   2705,   2709,   2708,   2504
   681,    572,    674,    675,    573,   2708,   2711,   2710,   2506
** ... 95 like lines cut
*ELEMENT, TYPE=S6, ELSET=Eall
   777,   1064,   1046,   1084,   2920,   2919,   2918
*ELEMENT, TYPE=S8, ELSET=Eall
   778,    636,    731,    783,    684,   2825,   2921,   2634,   2731
   779,    631,    721,    784,    705,   2805,   2923,   2922,   2787
   780,    681,    786,    785,    682,   2926,   2925,   2924,   2727
   781,    583,    682,    787,    683,   2726,   2928,   2927,   2729
   782,    683,    787,    726,    626,   2927,   2929,   2816,   2728
   783,    715,    788,    778,    648,   2931,   2930,   2909,   2796
   784,    686,    789,    782,    685,   2934,   2933,   2932,   2733
   785,    699,    791,    790,    700,   2937,   2936,   2935,   2761
   786,    691,    793,    792,    690,   2940,   2939,   2938,   2741
   787,    690,    792,    794,    689,   2938,   2942,   2941,   2743
   788,    696,    782,    753,    695,   2944,   2943,   2869,   2751
   789,    693,    795,    791,    699,   2946,   2945,   2937,   2759
   790,    599,    701,    747,    630,   2762,   2947,   2858,   2626
   791,    620,    658,    796,    666,   2682,   2949,   2948,   2753
   792,    645,    797,    788,    715,   2951,   2950,   2931,   2794
   793,    700,    790,    798,    701,   2935,   2953,   2952,   2763
   794,    703,    800,    799,    702,   2956,   2955,   2954,   2765
   795,    711,    736,    801,    646,   2959,   2958,   2957,   2788
   796,    706,    803,    802,    707,   2962,   2961,   2960,   2773
   797,    704,    804,    803,    706,   2964,   2963,   2962,   2771
** ... 32 like lines cut
*ELEMENT, TYPE=S6, ELSET=Eall
   830,   1032,   1071,   1031,   3020,   3019,   3018
*ELEMENT, TYPE=S8, ELSET=Eall
   831,    730,    826,    825,    729,   2665,   3022,   3021,   2823
   832,    716,    809,    827,    731,   2976,   3024,   3023,   2826
   833,    737,    828,    723,    643,   3026,   3025,   2810,   2838
   834,    732,    829,    741,    644,   3028,   3027,   2846,   2827
   835,    733,    830,    732,    633,   3030,   3029,   2828,   2829
   836,    735,    832,    831,    734,   3033,   3032,   3031,   2832
   837,    729,    825,    833,    737,   3021,   3035,   3034,   2839
   838,    621,    718,    834,    721,   2800,   3037,   3036,   2806
   839,    739,    836,    835,    738,   3040,   3039,   3038,   2841
   840,    831,    837,    746,    734,   3042,   3041,   2856,   3031
   841,    642,    746,    838,    740,   2855,   3044,   3043,   2844
   842,    741,    839,    836,    739,   3046,   3045,   3040,   2845
   843,    742,    841,    840,    719,   3049,   3048,   3047,   2847
   844,    653,    754,    796,    658,   2870,   3050,   2949,   2681
   845,    744,    842,    743,    641,   3052,   3051,   2850,   2851
   846,    635,    745,    843,    735,   2853,   3054,   3053,   2833
   847,    719,    840,    844,    718,   3047,   3056,   3055,   2801
   848,    738,    845,    744,    637,   3058,   3057,   2852,   2840
   849,   1031,   1071,   1076,   1043,   3019,   3060,   2988,   3059
   850,    619,    728,    847,    745,   2820,   3062,   3061,   2854
** ... 4 like lines cut
*ELEMENT, TYPE=S6, ELSET=Eall
   855,     74,     20,     19,   2214,   1860,   2218
*ELEMENT, TYPE=S8, ELSET=Eall
   856,    764,    856,    855,    763,   3076,   3075,   3074,   2885
   857,    785,    857,    787,    682,   3078,   3077,   2928,   2924
   858,    794,    858,    852,    789,   3081,   3080,   3079,   2995
   859,    752,    851,    859,    808,   3068,   3083,   3082,   2975
*ELEMENT, TYPE=S6, ELSET=Eall
   860,    986,    973,   1006,   3086,   3085,   3084
*ELEMENT, TYPE=S8, ELSET=Eall
   861,    769,    861,    860,    768,   3089,   3088,   3087,   2893
   862,    756,    862,    846,    770,   3091,   3090,   2818,   2896
   863,    772,    864,    863,    771,   3094,   3093,   3092,   2898
   864,    670,    770,    724,    773,   2895,   3096,   3095,   2901
   865,    775,    866,    865,    774,   3099,   3098,   3097,   2903
   866,    771,    863,    866,    775,   3092,   3100,   3099,   2914
   867,    731,    827,    867,    783,   3023,   3102,   3101,   2921
   868,    802,    869,    868,    806,   3105,   3104,   3103,   2999
   869,    786,    871,    870,    785,   3108,   3107,   3106,   2925
*ELEMENT, TYPE=S6, ELSET=Eall
   870,    108,     21,      3,   3109,   2288,   1804
*ELEMENT, TYPE=S8, ELSET=Eall
   871,    793,    873,    872,    792,   3112,   3111,   3110,   2939
   872,    787,    857,    820,    726,   3077,   3113,   3011,   2929
   873,    701,    798,    848,    747,   2952,   3114,   3064,   2947
   874,    789,    852,    753,    782,   3079,   3070,   2943,   2933
   875,    791,    875,    874,    790,   3117,   3116,   3115,   2936
   876,   1006,    973,   1000,   1057,   3085,   3120,   3119,   3118
*ELEMENT, TYPE=S6, ELSET=Eall
   877,    143,     11,     12,   2309,   1856,   2313
*ELEMENT, TYPE=S8, ELSET=Eall
   878,    804,    877,    876,    803,   3123,   3122,   3121,   2963
   879,    758,    879,    878,    761,   3125,   2512,   3124,   2970
   880,    768,    860,    880,    812,   3087,   3127,   3126,   2984
   881,    797,    882,    881,    788,   3130,   3129,   3128,   2950
   882,    788,    881,    883,    778,   3128,   3132,   3131,   2930
   883,    800,    885,    884,    799,   3135,   3134,   3133,   2955
   884,    736,    805,    886,    801,   2969,   3137,   3136,   2958
   885,    803,    876,    869,    802,   3121,   3138,   3105,   2961
   886,    808,    859,    887,    795,   3082,   3140,   3139,   2986
   887,    806,    868,    886,    805,   3103,   3141,   3137,   2966
*ELEMENT, TYPE=S6, ELSET=Eall
   888,    108,     22,     21,   3142,   1861,   3109
*ELEMENT, TYPE=S8, ELSET=Eall
   889,    774,    865,    871,    786,   3097,   3143,   3108,   2991
   890,    750,    889,    888,    749,   3146,   3145,   3144,   2863
*ELEMENT, TYPE=S6, ELSET=Eall
   891,    109,     16,      2,   3147,   2193,   1805
   892,     16,    109,     15,   3147,   3148,   1858
*ELEMENT, TYPE=S8, ELSET=Eall
   893,    810,    891,    890,    809,   3151,   3150,   3149,   2977
   894,    749,    888,    892,    748,   3144,   3153,   3152,   2861
   895,    801,    886,    882,    797,   3136,   3154,   3130,   2982
   896,    723,    828,    893,    807,   3025,   3156,   3155,   2993
   897,    721,    834,    894,    784,   3036,   3158,   3157,   2923
*ELEMENT, TYPE=S6, ELSET=Eall
   898,    854,    989,    853,   3160,   3159,   3072
*ELEMENT, TYPE=S8, ELSET=Eall
   899,    784,    894,    877,    804,   3157,   3161,   3123,   2998
   900,    795,    887,    875,    791,   3139,   3162,   3117,   2945
   901,    755,    895,    861,    754,   3165,   3164,   3163,   2871
   902,    783,    867,    896,    813,   3101,   3167,   3166,   2633
   903,    757,    897,    862,    756,   3169,   3168,   3091,   2874
   904,    812,    880,    898,    767,   3126,   3171,   3170,   2985
   905,    759,    899,    879,    758,   3172,   2579,   3125,   2877
   906,    761,    900,    854,    760,   3174,   3173,   3073,   2880
   907,    807,    893,    901,    777,   3155,   3176,   3175,   2971
   908,    766,    849,    902,    765,   3065,   3178,   3177,   2888
   909,    767,    898,    897,    757,   3170,   3179,   3169,   2890
   910,    781,    904,    903,    780,   3182,   3181,   3180,   2916
   911,    777,    901,    850,    776,   3175,   3183,   3067,   2906
   912,    722,    817,    899,    759,   3004,   3184,   3172,   2973
   913,    778,    883,    889,    750,   3131,   3185,   3146,   2908
   914,    790,    874,    905,    798,   3115,   3187,   3186,   2953
   915,    691,    814,    906,    793,   2996,   3189,   3188,   2940
   916,    713,    813,    896,    814,   2617,   3166,   3190,   2997
   917,    853,    989,    966,    895,   3159,   3193,   3192,   3191
   918,    816,    907,    847,    728,   3195,   3194,   3062,   3002
** ... 36 like lines cut
*ELEMENT, TYPE=S6, ELSET=Eall
   955,    869,    958,    868,   3269,   3268,   3104
*ELEMENT, TYPE=S8, ELSET=Eall
   956,    858,    946,    851,    852,   3271,   3270,   3069,   3080
   957,    851,    946,    947,    859,   3270,   3273,   3272,   3083
   958,    894,    949,    948,    877,   3276,   3275,   3274,   3161
   959,    880,    951,    950,    898,   3279,   3278,   3277,   3171
   960,    864,    953,    952,    863,   3282,   3281,   3280,   3093
   961,    865,    955,    954,    871,   3285,   3284,   3283,   3143
   962,    866,    956,    955,    865,   3287,   3286,   3285,   3098
   963,    863,    952,    956,    866,   3280,   3288,   3287,   3100
   964,    814,    896,    957,    906,   3190,   3290,   3289,   3189
   965,    868,    958,    882,    886,   3268,   3291,   3154,   3141
*ELEMENT, TYPE=S6, ELSET=Eall
   966,    785,    870,    857,   3106,   3292,   3078
*ELEMENT, TYPE=S8, ELSET=Eall
   967,    857,    870,    915,    820,   3292,   3293,   3211,   3113
   968,    828,    916,    962,    893,   3212,   3295,   3294,   3156
   969,    874,    964,    963,    905,   3298,   3297,   3296,   3187
   970,   1076,   1071,   1033,   1063,   3060,   3300,   3299,   2837
   971,    895,    966,    860,    861,   3192,   3301,   3088,   3164
   972,    761,    878,    967,    900,   3124,   3303,   3302,   3174
   973,    859,    947,    968,    887,   3272,   3305,   3304,   3140
   974,    834,    920,    949,    894,   3220,   3306,   3276,   3158
   975,    860,    966,    951,    880,   3301,   3307,   3279,   3127
   976,    882,    958,    969,    881,   3291,   3309,   3308,   3129
   977,    881,    969,    945,    883,   3308,   3310,   3266,   3132
   978,    885,    971,    970,    884,   3313,   3312,   3311,   3134
   979,    891,    973,    972,    890,   3316,   3315,   3314,   3150
   980,    876,    974,    958,    869,   3318,   3317,   3269,   3138
   981,    871,    954,    975,    870,   3283,   3320,   3319,   3107
   982,    877,    948,    974,    876,   3274,   3321,   3318,   3122
   983,    888,    977,    976,    892,   3324,   3323,   3322,   3153
   984,    827,    921,    978,    867,   3222,   3326,   3325,   3102
   985,    898,    950,    979,    897,   3277,   3328,   3327,   3179
   986,    849,    980,    953,    902,   3331,   3330,   3329,   3178
** ... 43 like lines cut
*ELEMENT, TYPE=S6, ELSET=Eall
  1030,    685,    782,    692,   2932,   3407,   2745
*ELEMENT, TYPE=S8, ELSET=Eall
  1031,    924,   1004,   1013,    933,   3393,   3402,   3408,   3245
  1032,    935,    940,    936,    932,   3409,   3257,   3405,   3248
  1033,    939,   1014,    925,    832,   3411,   3410,   3230,   3254
  1034,    940,   1015,    920,    844,   3413,   3412,   3221,   3256
  1035,    826,    938,    999,    929,   2666,   3374,   3414,   3237
  1036,    856,    970,    971,    855,   3361,   3312,   3366,   3075
  1037,    931,   1016,    942,    835,   3416,   3415,   3261,   3241
  1038,    941,   1017,    939,    843,   3418,   3417,   3255,   3258
  1039,    845,    942,   1018,    908,   3260,   3420,   3419,   3197
  1040,    904,    918,   1019,    987,   3216,   3422,   3421,   3344
  1041,    841,    943,   1020,    937,   3262,   3424,   3423,   3252
  1042,    906,    957,   1021,    990,   3289,   3426,   3425,   3354
  1043,    905,    963,   1020,    943,   3296,   3427,   3424,   3267
  1044,    974,   1022,    969,    958,   3429,   3428,   3309,   3317
  1045,    920,   1015,   1023,    949,   3412,   3431,   3430,   3306
  1046,    949,   1023,   1024,    948,   3430,   3433,   3432,   3275
  1047,    948,   1024,   1022,    974,   3432,   3434,   3429,   3321
  1048,    954,   1026,   1025,    975,   3437,   3436,   3435,   3320
  1049,    945,   1028,   1027,    944,   3440,   3439,   3438,   3265
  1050,    969,   1022,   1028,    945,   3428,   3441,   3440,   3310
** ... 5 like lines cut
*ELEMENT, TYPE=S6, ELSET=Eall
  1056,    736,    711,    710,   2959,   3450,   2968
*ELEMENT, TYPE=S8, ELSET=Eall
  1057,    964,   1036,   1035,    963,   3453,   3452,   3451,   3297
  1058,    962,   1034,   1037,    985,   3448,   3455,   3454,   3340
  1059,    981,   1039,   1038,    980,   3458,   3457,   3456,   3332
  1060,    947,   1041,   1040,    968,   3461,   3460,   3459,   3305
  1061,    935,   1007,   1015,    940,   3387,   3462,   3413,   3409
  1062,    973,    986,    987,    972,   3086,   3343,   3463,   3315
  1063,    953,    980,   1038,    952,   3330,   3456,   3464,   3281
  1064,    977,   1030,   1042,    976,   3444,   3466,   3465,   3323
  1065,    937,   1020,   1016,    931,   3423,   3467,   3416,   3404
  1066,    979,   1031,   1043,    983,   3446,   3059,   3468,   3346
  1067,    710,    711,    608,    607,   3450,   2782,   3469,   2778
  1068,    921,   1012,   1044,    978,   3400,   3471,   3470,   3326
*ELEMENT, TYPE=S6, ELSET=Eall
  1069,    727,    678,    677,   2981,   3472,   2911
*ELEMENT, TYPE=S8, ELSET=Eall
  1070,    983,   1043,   1046,    982,   3468,   2989,   3473,   3335
  1071,    968,   1040,   1047,    984,   3459,   3475,   3474,   3338
  1072,    677,    678,    576,    575,   3472,   2718,   3476,   2714
  1073,    987,   1019,   1012,    972,   3421,   3477,   3401,   3463
  1074,    878,    959,   1048,    967,   2513,   3479,   3478,   3303
  1075,    824,    930,    910,    818,   3239,   3480,   3201,   3350
  1076,    984,   1047,   1036,    964,   3474,   3481,   3453,   3341
  1077,    873,    990,   1049,    961,   3353,   3484,   3483,   3482
  1078,    955,   1050,   1026,    954,   3486,   3485,   3437,   3284
  1079,    951,   1029,   1032,    950,   3442,   3487,   3447,   3278
*ELEMENT, TYPE=S6, ELSET=Eall
  1080,    537,    508,    608,   3489,   3488,   2780
*ELEMENT, TYPE=S8, ELSET=Eall
  1081,    978,   1044,   1021,    957,   3470,   2432,   3426,   3345
  1082,    900,    967,   1051,    988,   3302,   3492,   3491,   3490
  1083,    911,    995,   1052,    960,   3364,   3494,   3493,   3347
  1084,    956,   1053,   1050,    955,   3496,   3495,   3486,   3286
  1085,    985,   1037,   1039,    981,   3454,   3497,   3458,   3349
  1086,    952,   1038,   1053,    956,   3464,   3498,   3496,   3288
  1087,    992,   1054,   1002,    928,   3500,   3499,   3380,   3357
  1088,    993,   1055,   1011,    934,   3502,   3501,   3398,   3359
  1089,    961,   1049,   1056,   1045,   3483,   3505,   3504,   3503
  1090,    912,   1006,   1057,    996,   3386,   3118,   3506,   3368
  1091,   1005,   1058,   1009,    923,   3507,   2285,   3392,   3384
  1092,    998,   1059,   1005,    919,   3509,   3508,   3385,   3372
  1093,   1025,   1057,   1000,    975,   3510,   3119,   3406,   3435
  1094,   1001,   1052,    995,    913,   3511,   3494,   3369,   3377
  1095,    960,   1052,   1048,    959,   3493,   3512,   3479,   2577
  1096,   1002,   1060,   1019,    918,   3514,   3513,   3422,   3379
  1097,    926,   1003,   1061,   1010,   3381,   3516,   3515,   3396
  1098,   1046,   1062,    999,    982,   3518,   3517,   3375,   3473
  1099,    608,    508,    507,    607,   3488,   2378,   2575,   3469
  1100,    988,   1051,   1063,   1033,   3491,   3520,   3299,   3519
** ... 12 like lines cut
*ELEMENT, TYPE=S6, ELSET=Eall
  1113,    532,    467,    576,   3542,   3541,   2716
*ELEMENT, TYPE=S8, ELSET=Eall
  1114,   1024,   1072,   1028,   1022,   3544,   3543,   3441,   3434
  1115,   1028,   1072,   1073,   1027,   3543,   2380,   3545,   3439
  1116,   1019,   1060,   1044,   1012,   3513,   2423,   3471,   3477
  1117,   1026,   1074,   1068,   1025,   3548,   3547,   3546,   3436
  1118,    963,   1035,   1016,   1020,   3451,   3549,   3467,   3427
  1119,    576,    467,    466,    575,   3541,   2283,   2509,   3476
  1120,   1065,   1081,   1082,   1048,   3553,   3552,   3551,   3550
  1121,   1052,   1001,   1065,   1048,   3511,   3523,   3550,   3512
  1122,   1010,   1061,   1077,   1034,   3515,   3555,   3554,   3449
  1123,   1075,   1054,   1088,   1085,   3558,   3557,   3556,   2434
  1124,   1041,   1045,   1078,   1040,   3561,   3560,   3559,   3460
  1125,   1038,   1039,   1079,   1053,   3457,   3563,   3562,   3498
  1126,   1034,   1077,   1080,   1037,   3554,   3565,   3564,   3455
  1127,   1069,   1036,   1047,   1087,   3568,   3481,   3567,   3566
  1128,   1018,   1069,   1087,   1066,   3536,   3566,   3569,   3526
  1129,   1007,    922,   1009,   1083,   3388,   3391,   2286,   3570
  1130,    967,   1048,   1082,   1051,   3478,   3551,   3571,   3492
  1131,   1042,   1030,   1059,    998,   3466,   3572,   3509,   3529
  1132,   1036,   1069,   1016,   1035,   3568,   3537,   3549,   3452
  1133,   1023,   1083,   1072,   1024,   3573,   2379,   3544,   3433
** ... 10 like lines cut
*ELEMENT, TYPE=S6, ELSET=Eall
  1144,   1056,   1078,   1045,   3585,   3560,   3504
*ELEMENT, TYPE=S8, ELSET=Eall
  1145,   1057,   1025,   1068,    996,   3510,   3546,   3535,   3506
  1146,    900,    988,    989,    854,   3490,   3580,   3160,   3173
  1147,   1059,   1073,   1058,   1005,   3582,   2381,   3507,   3508
  1148,    961,   1045,   1041,    965,   3503,   3561,   3576,   3586
  1149,   1067,   1077,   1061,   1014,   3587,   3555,   3531,   3532
  1150,   1064,   1084,   1055,    993,   2918,   3588,   3502,   3521
  1151,   1066,   1088,   1054,    992,   3589,   3557,   3500,   3525
  1152,    873,    961,    965,    872,   3482,   3586,   3590,   3111
  1153,    872,    965,    946,    858,   3590,   3575,   3271,   3591
  1154,   1049,   1085,   1088,   1056,   3577,   3556,   3592,   3505
  1155,   1068,   1074,   1070,    991,   3547,   3593,   3539,   3534
  1156,   1017,   1070,   1089,   1067,   3538,   3595,   3594,   3533
*ELEMENT, TYPE=S6, ELSET=Eall
  1157,    624,    773,    724,   2900,   3095,   2812
*ELEMENT, TYPE=S8, ELSET=Eall
  1158,   1002,   1054,   1075,   1060,   3499,   3558,   2422,   3514
  1159,   1078,   1056,   1088,   1087,   3585,   3592,   3596,   3583
*ELEMENT, TYPE=S6, ELSET=Eall
  1160,    811,    727,    779,   2980,   2912,   3597
*ELEMENT, TYPE=S8, ELSET=Eall
  1161,   1067,   1089,   1080,   1077,   3594,   3598,   3565,   3587
  1162,    792,    872,    858,    794,   3110,   3591,   3081,   2942
  1163,   1079,   1080,   1089,   1086,   3574,   3598,   3599,   3581
  1164,    930,    997,    994,    910,   3370,   3600,   3363,   3480
  1165,   1082,   1090,   1063,   1051,   3601,   2836,   3520,   3571
  1166,   1055,   1084,   1090,   1081,   3588,   2835,   3602,   3584
  1167,   1062,   1046,   1064,   1008,   3518,   2920,   3522,   3527
  1168,    994,    997,    976,   1042,   3600,   3371,   3465,   3530
  1169,   1086,   1089,   1070,   1074,   3599,   3595,   3593,   3578
  1170,    765,    902,    864,    772,   3177,   3604,   3094,   3603
  1171,    779,    765,    772,    811,   2994,   3603,   2990,   3597
  1172,    110,    508,    537,    427,   2377,   3489,   2592,   3605
  1173,    109,    110,    427,     15,   1806,   3605,   2195,   3148
  1174,    107,    467,    532,    468,   2282,   3542,   2478,   3606
  1175,    108,    107,    468,     22,   1803,   3606,   2290,   3142
*ELEMENT, TYPE=S6, ELSET=Eall
  1176,    902,    953,    864,   3329,   3282,   3604
  1177,   1081,   1090,   1082,   3602,   3601,   3552
  1178,   1087,   1088,   1066,   3596,   3589,   3569
*ELEMENT, TYPE=S8, ELSET=Eall
  1179,     23,     24,    160,    155,   1868,   1869,   3607,   1862
  1180,    155,    160,    161,    156,   3607,   1870,   3608,   1863
  1181,    156,    161,    162,    157,   3608,   1871,   3609,   1864
  1182,    157,    162,    163,    158,   3609,   1872,   3610,   1865
  1183,    158,    163,    164,    159,   3610,   1873,   3611,   1866
  1184,    159,    164,     10,      9,   3611,   1874,   1855,   1867
  1185,     25,     26,    170,    165,   1881,   1882,   3612,   1875
  1186,    165,    170,    171,    166,   3612,   1883,   3613,   1876
  1187,    166,    171,    172,    167,   3613,   1884,   3614,   1877
  1188,    167,    172,    173,    168,   3614,   1885,   3615,   1878
  1189,    168,    173,    174,    169,   3615,   1886,   3616,   1879
  1190,    169,    174,     18,     17,   3616,   1887,   1859,   1880
  1191,     27,     28,    180,    175,   1894,   1895,   3617,   1888
  1192,    175,    180,    181,    176,   3617,   1896,   3618,   1889
  1193,    176,    181,    182,    177,   3618,   1897,   3619,   1890
  1194,    177,    182,    183,    178,   3619,   1898,   3620,   1891
  1195,    178,    183,    184,    179,   3620,   1899,   3621,   1892
  1196,    179,    184,     16,     15,   3621,   1900,   1858,   1893
  1197,     29,     30,    190,    185,   1907,   1908,   3622,   1901
  1198,    185,    190,    191,    186,   3622,   1909,   3623,   1902
** ... 80 like lines cut
*ELEMENT, TYPE=S6, ELSET=Eall
  1279,   1659,   1730,   1753,   3746,   3745,   3744
*ELEMENT, TYPE=S8, ELSET=Eall
  1280,     43,     51,     52,    314,   3748,   2078,   3747,   2051
  1281,    314,     52,   1132,    315,   3747,   3750,   3749,   2052
  1282,    315,   1132,   1133,    316,   3749,   3752,   3751,   2053
  1283,    316,   1133,   1134,    317,   3751,   3754,   3753,   2054
  1284,    317,   1134,   1135,    318,   3753,   3756,   3755,   2055
  1285,    318,   1135,   1136,    319,   3755,   3758,   3757,   2056
  1286,    319,   1136,   1137,    320,   3757,   3760,   3759,   2057
  1287,    320,   1137,   1138,    321,   3759,   3762,   3761,   2058
  1288,    321,   1138,   1139,    322,   3761,   3764,   3763,   2059
  1289,    322,   1139,   1140,    323,   3763,   3766,   3765,   2060
  1290,    323,   1140,   1141,    324,   3765,   3768,   3767,   2061
  1291,    324,   1141,     53,    325,   3767,   3770,   3769,   2062
  1292,    325,     54,   1142,    326,   3773,   3772,   3771,   2063
  1293,    326,   1142,   1143,    327,   3771,   3775,   3774,   2064
  1294,    327,   1143,   1144,    328,   3774,   3777,   3776,   2065
  1295,    328,   1144,   1145,    329,   3776,   3779,   3778,   2066
  1296,    329,   1145,   1146,    330,   3778,   3781,   3780,   2067
  1297,    330,   1146,   1147,    331,   3780,   3783,   3782,   2068
  1298,    331,   1147,   1148,    332,   3782,   3785,   3784,   2069
  1299,    332,   1148,   1149,    333,   3784,   3787,   3786,   2070
** ... 43 like lines cut
*ELEMENT, TYPE=S6, ELSET=Eall
  1343,   1655,   1588,   1656,   3882,   3881,   3880
*ELEMENT, TYPE=S8, ELSET=Eall
  1344,   1141,   1196,   1176,     53,   3884,   3883,   3848,   3770
  1345,   1151,   1197,   1173,     47,   3886,   3885,   3843,   3793
  1346,   1655,   1656,   1722,   1701,   3880,   3889,   3888,   3887
  1347,   1177,   1200,   1199,     56,   3892,   3891,   3890,   3849
  1348,   1179,   1202,   1201,     55,   3895,   3894,   3893,   3852
  1349,   1184,   1203,   1194,     59,   3897,   3896,   3879,   3861
  1350,     55,   1201,   1204,   1178,   3893,   3899,   3898,   3851
  1351,     56,   1199,   1205,   1180,   3890,   3901,   3900,   3854
*ELEMENT, TYPE=S6, ELSET=Eall
  1352,   1528,   1481,   1586,   3904,   3903,   3902
*ELEMENT, TYPE=S8, ELSET=Eall
  1353,   1092,   1207,   1206,   1093,   3907,   3906,   3905,   3659
  1354,   1093,   1206,   1208,   1094,   3905,   3909,   3908,   3661
  1355,   1094,   1208,   1209,   1095,   3908,   3911,   3910,   3663
  1356,   1095,   1209,   1210,   1096,   3910,   3913,   3912,   3665
  1357,   1096,   1210,   1211,   1097,   3912,   3915,   3914,   3667
  1358,   1097,   1211,   1212,   1098,   3914,   3917,   3916,   3669
  1359,   1098,   1212,   1213,   1099,   3916,   3919,   3918,   3671
  1360,   1099,   1213,   1187,   1100,   3918,   3920,   3867,   3673
  1361,   1101,   1188,   1214,   1102,   3868,   3922,   3921,   3680
  1362,   1104,   1216,   1215,   1105,   3925,   3924,   3923,   3686
  1363,   1105,   1215,   1217,   1106,   3923,   3927,   3926,   3688
  1364,   1106,   1217,   1218,   1107,   3926,   3929,   3928,   3690
  1365,   1107,   1218,   1219,   1108,   3928,   3931,   3930,   3692
  1366,   1108,   1219,   1220,   1109,   3930,   3933,   3932,   3694
  1367,   1109,   1220,   1189,   1110,   3932,   3934,   3871,   3696
  1368,   1111,   1174,   1221,   1112,   3844,   3936,   3935,   3703
  1369,   1132,   1195,   1222,   1133,   3939,   3938,   3937,   3752
  1370,   1113,   1224,   1223,   1114,   3942,   3941,   3940,   3707
  1371,   1114,   1223,   1225,   1115,   3940,   3944,   3943,   3709
  1372,   1115,   1225,   1226,   1116,   3943,   3946,   3945,   3711
** ... 46 like lines cut
*ELEMENT, TYPE=S6, ELSET=Eall
  1419,   1533,   1474,   1473,   4040,   4039,   4038
*ELEMENT, TYPE=S8, ELSET=Eall
  1420,   1153,   1254,   1256,   1154,   4004,   4041,   4008,   3800
  1421,   1112,   1221,   1224,   1113,   3935,   4042,   3942,   3705
  1422,   1176,   1273,   1272,   1175,   4045,   4044,   4043,   3847
  1423,   1186,   1275,   1274,   1185,   4048,   4047,   4046,   3864
  1424,   1091,   1198,   1207,   1092,   4050,   4049,   3907,   3657
  1425,   1102,   1214,   1276,   1103,   3921,   4052,   4051,   3682
  1426,   1103,   1276,   1216,   1104,   4051,   4053,   3925,   3684
  1427,   1143,   1247,   1277,   1144,   3990,   4055,   4054,   3777
  1428,   1144,   1277,   1249,   1145,   4054,   4056,   3994,   3779
  1429,   1178,   1279,   1278,   1177,   4059,   4058,   4057,   3850
  1430,   1180,   1281,   1280,   1179,   4062,   4061,   4060,   3853
  1431,   1278,   1282,   1200,   1177,   4064,   4063,   3892,   4057
  1432,   1189,   1283,   1221,   1174,   4066,   4065,   3936,   3870
  1433,   1192,   1285,   1284,   1191,   4069,   4068,   4067,   3875
  1434,   1533,   1473,   1444,   1530,   4038,   4072,   4071,   4070
  1435,   1182,   1191,   1287,   1231,   3874,   4074,   4073,   3957
  1436,   1193,   1288,   1263,   1183,   4076,   4075,   4023,   3877
*ELEMENT, TYPE=S6, ELSET=Eall
  1437,   1525,   1436,   1437,   4079,   4078,   4077
*ELEMENT, TYPE=S8, ELSET=Eall
  1438,   1196,   1289,   1273,   1176,   4081,   4080,   4045,   3883
  1439,   1197,   1290,   1254,   1173,   4083,   4082,   4005,   3885
  1440,   1175,   1272,   1291,   1190,   4043,   4085,   4084,   3873
  1441,   1262,   1292,   1203,   1184,   4087,   4086,   3897,   4021
  1442,   1525,   1437,   1459,   1526,   4077,   4090,   4089,   4088
  1443,   1200,   1294,   1293,   1199,   4093,   4092,   4091,   3891
  1444,   1186,   1187,   1295,   1275,   3866,   4095,   4094,   4048
  1445,   1274,   1296,   1188,   1185,   4097,   4096,   3869,   4046
  1446,   1199,   1293,   1297,   1205,   4091,   4099,   4098,   3901
  1447,   1204,   1298,   1279,   1178,   4101,   4100,   4059,   3898
  1448,   1192,   1286,   1299,   1285,   4104,   4103,   4102,   4069
  1449,   1180,   1205,   1300,   1281,   3900,   4106,   4105,   4062
  1450,   1280,   1301,   1202,   1179,   4108,   4107,   3895,   4060
  1451,   1194,   1303,   1302,   1193,   4111,   4110,   4109,   3878
  1452,   1201,   1305,   1304,   1204,   4114,   4113,   4112,   3899
  1453,   1202,   1306,   1305,   1201,   4116,   4115,   4114,   3894
  1454,   1203,   1307,   1303,   1194,   4118,   4117,   4111,   3896
  1455,   1206,   1309,   1308,   1208,   4121,   4120,   4119,   3909
  1456,   1210,   1311,   1310,   1211,   4124,   4123,   4122,   3915
  1457,   1211,   1310,   1312,   1212,   4122,   4126,   4125,   3917
** ... 17 like lines cut
*ELEMENT, TYPE=S6, ELSET=Eall
  1475,   1725,   1738,   1754,   4170,   4169,   4168
*ELEMENT, TYPE=S8, ELSET=Eall
  1476,   1241,   1328,   1337,   1242,   4154,   4172,   4171,   3980
  1477,   1233,   1339,   1338,   1234,   4175,   4174,   4173,   3963
  1478,   1234,   1338,   1340,   1235,   4173,   4177,   4176,   3965
  1479,   1235,   1340,   1341,   1236,   4176,   4179,   4178,   3967
  1480,   1236,   1341,   1342,   1237,   4178,   4181,   4180,   3969
  1481,   1237,   1342,   1343,   1238,   4180,   4183,   4182,   3971
  1482,   1239,   1344,   1222,   1195,   4186,   4185,   3938,   4184
  1483,   1222,   1344,   1329,   1240,   4185,   4187,   4156,   3976
  1484,   1242,   1337,   1345,   1243,   4171,   4189,   4188,   3982
  1485,   1243,   1345,   1346,   1244,   4188,   4191,   4190,   3984
  1486,   1244,   1346,   1347,   1245,   4190,   4193,   4192,   3986
  1487,   1245,   1347,   1348,   1246,   4192,   4195,   4194,   3988
  1488,   1246,   1349,   1289,   1196,   4197,   4196,   4081,   3989
  1489,   1190,   1291,   1350,   1247,   4084,   4199,   4198,   3991
  1490,   1251,   1326,   1351,   1252,   4151,   4201,   4200,   4000
  1491,   1279,   1353,   1352,   1278,   4204,   4203,   4202,   4058
  1492,   1249,   1355,   1354,   1248,   4207,   4206,   4205,   3993
  1493,   1248,   1354,   1327,   1250,   4205,   4208,   4153,   3996
  1494,   1252,   1351,   1356,   1253,   4200,   4210,   4209,   4002
  1495,   1253,   1356,   1290,   1197,   4209,   4211,   4083,   4003
** ... 36 like lines cut
*ELEMENT, TYPE=S6, ELSET=Eall
  1532,   1499,   1475,   1314,   4286,   4285,   4284
*ELEMENT, TYPE=S8, ELSET=Eall
  1533,   1279,   1298,   1391,   1353,   4100,   4288,   4287,   4204
  1534,   1305,   1388,   1392,   1304,   4281,   4290,   4289,   4113
  1535,   1193,   1302,   1393,   1288,   4109,   4292,   4291,   4076
  1536,   1275,   1295,   1394,   1360,   4094,   4294,   4293,   4217
  1537,   1359,   1395,   1296,   1274,   4296,   4295,   4097,   4215
  1538,   1300,   1396,   1379,   1281,   4298,   4297,   4259,   4105
  1539,   1203,   1292,   1397,   1307,   4086,   4300,   4299,   4118
  1540,   1294,   1399,   1398,   1293,   4303,   4302,   4301,   4092
  1541,   1499,   1314,   1213,   1313,   4284,   4130,   4127,   4304
  1542,   1204,   1304,   1401,   1298,   4112,   4306,   4305,   4101
  1543,   1200,   1282,   1402,   1294,   4063,   4308,   4307,   4093
  1544,   1297,   1403,   1300,   1205,   4310,   4309,   4106,   4098
  1545,   1299,   1404,   1382,   1285,   4312,   4311,   4270,   4102
  1546,   1301,   1405,   1306,   1202,   4314,   4313,   4116,   4107
  1547,   1303,   1407,   1406,   1302,   4317,   4316,   4315,   4110
  1548,   1280,   1378,   1408,   1301,   4257,   4319,   4318,   4108
  1549,   1293,   1398,   1409,   1297,   4301,   4321,   4320,   4099
  1550,   1307,   1410,   1407,   1303,   4323,   4322,   4317,   4117
  1551,   1312,   1412,   1411,   1313,   4326,   4325,   4324,   4128
  1552,   1310,   1413,   1412,   1312,   4328,   4327,   4326,   4126
*ELEMENT, TYPE=S6, ELSET=Eall
  1553,   1611,   1707,   1718,   4331,   4330,   4329
*ELEMENT, TYPE=S8, ELSET=Eall
  1554,   1357,   1415,   1414,   1365,   4334,   4333,   4332,   4227
  1555,   1718,   1707,   1752,   1733,   4330,   4337,   4336,   4335
  1556,   1335,   1419,   1418,   1336,   4341,   4340,   4339,   4338
  1557,   1375,   1400,   1420,   1309,   4344,   4343,   4342,   4261
  1558,   1320,   1422,   1421,   1319,   4347,   4346,   4345,   4139
  1559,   1319,   1421,   1423,   1318,   4345,   4349,   4348,   4141
  1560,   1325,   1425,   1424,   1324,   4352,   4351,   4350,   4149
  1561,   1340,   1427,   1426,   1341,   4355,   4354,   4353,   4179
  1562,   1322,   1428,   1419,   1335,   4357,   4356,   4341,   4167
  1563,   1332,   1430,   1429,   1334,   4360,   4359,   4358,   4165
  1564,   1328,   1432,   1431,   1337,   4363,   4362,   4361,   4172
  1565,   1345,   1434,   1433,   1346,   4366,   4365,   4364,   4191
  1566,   1288,   1393,   1435,   1369,   4291,   4368,   4367,   4255
  1567,   1361,   1437,   1436,   1320,   4370,   4078,   4369,   4256
  1568,   1339,   1439,   1438,   1338,   4373,   4372,   4371,   4174
  1569,   1334,   1429,   1440,   1323,   4358,   4375,   4374,   4264
  1570,   1338,   1438,   1427,   1340,   4371,   4376,   4355,   4177
  1571,   1342,   1441,   1390,   1343,   4379,   4378,   4377,   4183
  1572,   1337,   1431,   1434,   1345,   4361,   4380,   4366,   4189
  1573,   1355,   1443,   1442,   1354,   4383,   4382,   4381,   4206
** ... 40 like lines cut
*ELEMENT, TYPE=S6, ELSET=Eall
  1614,   1702,   1740,   1713,   4459,   4458,   4457
*ELEMENT, TYPE=S8, ELSET=Eall
  1615,   1713,   1740,   1739,   1712,   4458,   4250,   4461,   4460
  1616,   1364,   1457,   1470,   1358,   4408,   4462,   4440,   4223
  1617,   1314,   1475,   1394,   1295,   4285,   4463,   4294,   4129
  1618,   1418,   1387,   1330,   1336,   4465,   4280,   4464,   4339
  1619,   1386,   1476,   1402,   1282,   4467,   4466,   4308,   4277
  1620,   1387,   1477,   1404,   1299,   4469,   4468,   4312,   4279
  1621,   1389,   1479,   1478,   1388,   4472,   4471,   4470,   4282
  1622,   1455,   1480,   1395,   1359,   4474,   4473,   4296,   4405
  1623,   1284,   1381,   1481,   1384,   4268,   4476,   4475,   4274
  1624,   1298,   1401,   1482,   1391,   4305,   4478,   4477,   4288
  1625,   1392,   1483,   1401,   1304,   4480,   4479,   4306,   4289
  1626,   1450,   1484,   1386,   1352,   4482,   4481,   4278,   4395
  1627,   1394,   1485,   1456,   1360,   4484,   4483,   4407,   4293
  1628,   1396,   1486,   1472,   1379,   4486,   4485,   4448,   4297
  1629,   1307,   1397,   1487,   1410,   4299,   4488,   4487,   4323
  1630,   1399,   1489,   1488,   1398,   4491,   4490,   4489,   4302
  1631,   1383,   1490,   1425,   1325,   4493,   4492,   4352,   4271
  1632,   1402,   1491,   1399,   1294,   4495,   4494,   4303,   4307
  1633,   1403,   1492,   1396,   1300,   4497,   4496,   4298,   4309
  1634,   1324,   1424,   1493,   1385,   4350,   4499,   4498,   4276
** ... 4 like lines cut
*ELEMENT, TYPE=S6, ELSET=Eall
  1639,   1751,   1753,   1746,   4511,   4510,   4509
*ELEMENT, TYPE=S8, ELSET=Eall
  1640,   1302,   1406,   1500,   1393,   4315,   4513,   4512,   4292
  1641,   1297,   1409,   1501,   1403,   4320,   4515,   4514,   4310
  1642,   1407,   1503,   1502,   1406,   4518,   4517,   4516,   4316
  1643,   1488,   1504,   1409,   1398,   4520,   4519,   4321,   4489
  1644,   1494,   1505,   1381,   1382,   4522,   4521,   4269,   4500
  1645,   1378,   1471,   1506,   1408,   4446,   4524,   4523,   4319
  1646,   1410,   1507,   1503,   1407,   4526,   4525,   4518,   4322
  1647,   1391,   1508,   1451,   1353,   4528,   4527,   4397,   4287
  1648,   1415,   1510,   1509,   1414,   4531,   4530,   4529,   4333
  1649,   1400,   1466,   1511,   1420,   4428,   4533,   4532,   4343
  1650,   1422,   1513,   1512,   1421,   4536,   4535,   4534,   4346
  1651,   1421,   1512,   1514,   1423,   4534,   4538,   4537,   4349
*ELEMENT, TYPE=S6, ELSET=Eall
  1652,    256,     62,     61,   3674,   2083,   3678
*ELEMENT, TYPE=S8, ELSET=Eall
  1653,   1449,   1516,   1515,   1448,   4541,   4540,   4539,   4393
  1654,   1425,   1518,   1517,   1424,   4544,   4543,   4542,   4351
  1655,   1731,   1616,   1683,   1663,   4548,   4547,   4546,   4545
  1656,   1431,   1520,   1519,   1434,   4551,   4550,   4549,   4380
  1657,   1445,   1521,   1447,   1348,   4553,   4552,   4390,   4386
  1658,   1746,   1753,   1730,   1742,   4510,   3745,   4555,   4554
  1659,   1523,   1522,   1429,   1430,   4558,   4557,   4359,   4556
  1660,   1393,   1500,   1524,   1435,   4512,   4560,   4559,   4368
*ELEMENT, TYPE=S6, ELSET=Eall
  1661,   1649,   1633,   1681,   4563,   4562,   4561
*ELEMENT, TYPE=S8, ELSET=Eall
  1662,   1429,   1522,   1527,   1440,   4557,   4565,   4564,   4375
  1663,   1681,   1633,   1651,   1721,   4562,   4568,   4567,   4566
  1664,   1384,   1481,   1528,   1468,   4475,   3904,   4569,   4455
  1665,   1355,   1474,   1529,   1443,   4572,   4571,   4570,   4383
  1666,   1385,   1493,   1530,   1444,   4498,   4573,   4071,   4385
  1667,   1446,   1532,   1531,   1445,   4576,   4575,   4574,   4387
*ELEMENT, TYPE=S6, ELSET=Eall
  1668,   1703,   1645,   1704,   4579,   4578,   4577
  1669,    290,     51,     43,   4580,   3748,   2026
*ELEMENT, TYPE=S8, ELSET=Eall
  1670,   1451,   1535,   1534,   1450,   4583,   4582,   4581,   4396
  1671,   1447,   1521,   1490,   1383,   4552,   4584,   4493,   4391
  1672,   1442,   1537,   1536,   1454,   4587,   4586,   4585,   4404
*ELEMENT, TYPE=S6, ELSET=Eall
  1673,    290,     52,     51,   4588,   2078,   4580
*ELEMENT, TYPE=S8, ELSET=Eall
  1674,   1414,   1509,   1538,   1461,   4529,   4590,   4589,   4450
*ELEMENT, TYPE=S6, ELSET=Eall
  1675,    325,     53,     54,   3769,   2079,   3773
*ELEMENT, TYPE=S8, ELSET=Eall
  1676,   1456,   1540,   1539,   1455,   4593,   4592,   4591,   4406
  1677,   1433,   1541,   1532,   1446,   4595,   4594,   4576,   4452
  1678,   1463,   1543,   1542,   1462,   4598,   4597,   4596,   4417
  1679,   1462,   1542,   1511,   1466,   4596,   4599,   4533,   4426
  1680,   1468,   1528,   1544,   1439,   4569,   4601,   4600,   4431
*ELEMENT, TYPE=S6, ELSET=Eall
  1681,    291,     46,     42,   4602,   3653,   2027
  1682,     46,    291,     45,   4602,   4603,   2075
*ELEMENT, TYPE=S8, ELSET=Eall
  1683,   1470,   1545,   1510,   1415,   4605,   4604,   4531,   4439
  1684,   1704,   1645,   1622,   1698,   4578,   4608,   4607,   4606
  1685,   1413,   1548,   1547,   1412,   4611,   4610,   4609,   4327
  1686,   1411,   1549,   1499,   1313,   4613,   4612,   4304,   4324
  1687,   1435,   1524,   1550,   1465,   4559,   4615,   4614,   4423
  1688,   1412,   1547,   1551,   1411,   4609,   4617,   4616,   4325
*ELEMENT, TYPE=S6, ELSET=Eall
  1689,   1691,   1647,   1692,   4620,   4619,   4618
*ELEMENT, TYPE=S8, ELSET=Eall
  1690,   1692,   1647,   1640,   1705,   4619,   4623,   4622,   4621
  1691,   1454,   1536,   1554,   1453,   4585,   4625,   4624,   4449
  1692,   1467,   1555,   1516,   1449,   4627,   4626,   4541,   4429
  1693,   1440,   1527,   1556,   1428,   4564,   4629,   4628,   4441
  1694,   1472,   1558,   1557,   1471,   4632,   4631,   4630,   4447
  1695,   1419,   1560,   1559,   1418,   4635,   4634,   4633,   4340
  1696,   1438,   1562,   1561,   1427,   4638,   4637,   4636,   4376
  1697,   1448,   1515,   1548,   1413,   4539,   4639,   4611,   4443
  1698,   1320,   1436,   1563,   1422,   4369,   4641,   4640,   4347
  1699,   1427,   1561,   1564,   1426,   4636,   4643,   4642,   4354
  1700,   1428,   1556,   1560,   1419,   4628,   4644,   4635,   4356
  1701,   1457,   1565,   1545,   1470,   4646,   4645,   4605,   4462
  1702,   1432,   1553,   1520,   1431,   4648,   4647,   4551,   4362
  1703,   1434,   1519,   1541,   1433,   4549,   4649,   4595,   4365
  1704,   1443,   1566,   1537,   1442,   4651,   4650,   4587,   4382
  1705,   1465,   1550,   1567,   1464,   4614,   4653,   4652,   4424
  1706,   1452,   1453,   1554,   1458,   4401,   4624,   4654,   4412
  1707,   1439,   1544,   1562,   1438,   4600,   4655,   4638,   4372
  1708,   1395,   1480,   1526,   1459,   4473,   4656,   4089,   4433
  1709,   1420,   1511,   1555,   1467,   4532,   4657,   4627,   4442
** ... 7 like lines cut
*ELEMENT, TYPE=S6, ELSET=Eall
  1717,   1445,   1531,   1521,   4574,   4669,   4553
*ELEMENT, TYPE=S8, ELSET=Eall
  1718,   1479,   1573,   1572,   1478,   4672,   4671,   4670,   4471
  1719,   1455,   1539,   1574,   1480,   4591,   4674,   4673,   4474
  1720,   1482,   1575,   1508,   1391,   4676,   4675,   4528,   4477
  1721,   1504,   1576,   1501,   1409,   4678,   4677,   4515,   4519
  1722,   1483,   1577,   1482,   1401,   4680,   4679,   4478,   4479
  1723,   1484,   1578,   1476,   1386,   4682,   4681,   4467,   4481
  1724,   1534,   1579,   1484,   1450,   4684,   4683,   4482,   4581
  1725,   1496,   1580,   1498,   1405,   4686,   4685,   4508,   4503
  1726,   1485,   1581,   1540,   1456,   4688,   4687,   4593,   4483
  1727,   1486,   1582,   1558,   1472,   4690,   4689,   4632,   4485
  1728,   1489,   1584,   1583,   1488,   4693,   4692,   4691,   4490
  1729,   1392,   1497,   1585,   1483,   4505,   4695,   4694,   4480
  1730,   1505,   1586,   1481,   1381,   4696,   3903,   4476,   4521
  1731,   1583,   1587,   1504,   1488,   4698,   4697,   4520,   4691
  1732,   1451,   1508,   1588,   1535,   4527,   4700,   4699,   4583
  1733,   1491,   1589,   1489,   1399,   4702,   4701,   4491,   4494
  1734,   1492,   1590,   1486,   1396,   4704,   4703,   4486,   4496
  1735,   1495,   1592,   1591,   1494,   4707,   4706,   4705,   4501
  1736,   1408,   1506,   1593,   1496,   4523,   4709,   4708,   4504
  1737,   1498,   1594,   1479,   1389,   4711,   4710,   4472,   4507
** ... 12 like lines cut
*ELEMENT, TYPE=S6, ELSET=Eall
  1750,   1477,   1387,   1552,   4469,   4738,   4737
*ELEMENT, TYPE=S8, ELSET=Eall
  1751,   1527,   1609,   1608,   1556,   4741,   4740,   4739,   4629
  1752,   1436,   1525,   1610,   1563,   4079,   4743,   4742,   4641
  1753,   1443,   1529,   1611,   1566,   4570,   4745,   4744,   4651
  1754,   1511,   1542,   1612,   1555,   4599,   4747,   4746,   4657
  1755,   1552,   1387,   1418,   1559,   4738,   4465,   4633,   4748
  1756,   1474,   1533,   1613,   1529,   4040,   4750,   4749,   4571
  1757,   1509,   1615,   1614,   1538,   4753,   4752,   4751,   4590
  1758,   1547,   1617,   1616,   1551,   4756,   4755,   4754,   4617
  1759,   1526,   1605,   1610,   1525,   4732,   4757,   4743,   4088
  1760,   1416,   1417,   1523,   1430,   4759,   4758,   4556,   4453
  1761,   1493,   1571,   1618,   1530,   4667,   4761,   4760,   4573
  1762,   1532,   1620,   1619,   1531,   4764,   4763,   4762,   4575
  1763,   1561,   1621,   1553,   1564,   4767,   4766,   4765,   4643
  1764,   1560,   1623,   1622,   1559,   4770,   4769,   4768,   4634
  1765,   1535,   1625,   1624,   1534,   4773,   4772,   4771,   4582
  1766,   1550,   1627,   1626,   1567,   4776,   4775,   4774,   4653
  1767,   1565,   1629,   1628,   1545,   4779,   4778,   4777,   4645
*ELEMENT, TYPE=S6, ELSET=Eall
  1768,   1317,   1417,   1316,   4444,   4780,   4134
*ELEMENT, TYPE=S8, ELSET=Eall
  1769,   1543,   1631,   1612,   1542,   4782,   4781,   4747,   4597
  1770,   1518,   1633,   1632,   1517,   4785,   4784,   4783,   4543
  1771,   1500,   1595,   1634,   1524,   4713,   4787,   4786,   4560
  1772,   1545,   1628,   1635,   1510,   4777,   4789,   4788,   4604
  1773,   1562,   1636,   1621,   1561,   4791,   4790,   4767,   4637
  1774,   1537,   1637,   1629,   1536,   4794,   4793,   4792,   4586
  1775,   1530,   1618,   1613,   1533,   4760,   4795,   4750,   4070
  1776,   1528,   1639,   1638,   1544,   3972,   4797,   4796,   4601
  1777,   1553,   1621,   1640,   1520,   4766,   4799,   4798,   4647
  1778,   1546,   1551,   1581,   1485,   4802,   4801,   4688,   4800
  1779,   1567,   1626,   1631,   1543,   4774,   4803,   4782,   4662
  1780,   1538,   1614,   1641,   1568,   4751,   4805,   4804,   4661
  1781,   1516,   1643,   1642,   1515,   4808,   4807,   4806,   4540
  1782,   1548,   1644,   1617,   1547,   4810,   4809,   4756,   4610
  1783,   1510,   1635,   1615,   1509,   4788,   4811,   4753,   4530
  1784,   1552,   1645,   1602,   1477,   4813,   4812,   4727,   4737
  1785,   1519,   1647,   1646,   1541,   4816,   4815,   4814,   4649
  1786,   1524,   1634,   1627,   1550,   4786,   4817,   4776,   4615
  1787,   1554,   1536,   1629,   1565,   4625,   4792,   4779,   4659
  1788,   1555,   1612,   1643,   1516,   4746,   4818,   4808,   4626
** ... 20 like lines cut
*ELEMENT, TYPE=S6, ELSET=Eall
  1809,   1400,   1375,   1374,   4344,   4850,   4427
*ELEMENT, TYPE=S8, ELSET=Eall
  1810,   1579,   1662,   1578,   1484,   4852,   4851,   4682,   4683
  1811,   1624,   1663,   1579,   1534,   4854,   4853,   4684,   4771
  1812,   1580,   1664,   1594,   1498,   4856,   4855,   4711,   4685
  1813,   1581,   1657,   1665,   1540,   4840,   4858,   4857,   4687
  1814,   1582,   1666,   1650,   1558,   4860,   4859,   4824,   4689
  1815,   1569,   1667,   1589,   1491,   4862,   4861,   4702,   4663
  1816,   1486,   1590,   1668,   1582,   4703,   4864,   4863,   4690
  1817,   1584,   1597,   1598,   1583,   4866,   4718,   4865,   4692
  1818,   1497,   1601,   1669,   1585,   4724,   4868,   4867,   4695
  1819,   1552,   1559,   1622,   1645,   4748,   4768,   4608,   4813
  1820,   1587,   1670,   1576,   1504,   4870,   4869,   4678,   4697
  1821,   1588,   1655,   1625,   1535,   3882,   4837,   4773,   4699
  1822,   1589,   1671,   1584,   1489,   4872,   4871,   4693,   4701
  1823,   1496,   1593,   1672,   1580,   4708,   4874,   4873,   4686
  1824,   1374,   1375,   1271,   1270,   4850,   4247,   4875,   4243
  1825,   1583,   1598,   1599,   1587,   4865,   4720,   4876,   4698
  1826,   1592,   1673,   1654,   1591,   4878,   4877,   4835,   4706
  1827,   1506,   1600,   1674,   1593,   4722,   4880,   4879,   4709
  1828,   1505,   1603,   1675,   1586,   4728,   4881,   3974,   4696
  1829,   1540,   1665,   1625,   1539,   4857,   4882,   4838,   4592
  1830,   1502,   1597,   1676,   1595,   4717,   4884,   4883,   4714
  1831,   1596,   1677,   1590,   1492,   4886,   4885,   4704,   4715
  1832,   1507,   1604,   1678,   1599,   4730,   4888,   4887,   4721
*ELEMENT, TYPE=S6, ELSET=Eall
  1833,   1390,   1344,   1343,   4436,   4889,   4377
*ELEMENT, TYPE=S8, ELSET=Eall
  1834,   1573,   1654,   1673,   1572,   4891,   4877,   4890,   4671
  1835,   1483,   1585,   1679,   1577,   4694,   4893,   4892,   4680
  1836,   1673,   1680,   1601,   1572,   4895,   4894,   4725,   4890
  1837,   1557,   1649,   1681,   1600,   4822,   4561,   4896,   4723
  1838,   1495,   1602,   1682,   1592,   4726,   4898,   4897,   4707
  1839,   1617,   1684,   1683,   1616,   4900,   4899,   4547,   4755
  1840,   1607,   1686,   1685,   1606,   4903,   4902,   4901,   4735
  1841,   1343,   1344,   1239,   1238,   4889,   4186,   4904,   4182
  1842,   1609,   1687,   1688,   1608,   4907,   4906,   4905,   4740
  1843,   1642,   1690,   1689,   1644,   4910,   4909,   4908,   4826
  1844,   1609,   1527,   1522,   1523,   4741,   4565,   4558,   4911
  1845,   1615,   1694,   1693,   1614,   4914,   4913,   4912,   4752
*ELEMENT, TYPE=S6, ELSET=Eall
  1846,   1229,   1331,   1230,   4915,   4160,   3954
*ELEMENT, TYPE=S8, ELSET=Eall
  1847,   1620,   1696,   1695,   1619,   4918,   4917,   4916,   4763
  1848,   1571,   1660,   1697,   1618,   4846,   4920,   4919,   4761
  1849,   1623,   1699,   1698,   1622,   4922,   4921,   4607,   4769
  1850,   1614,   1693,   1700,   1641,   4912,   4924,   4923,   4805
  1851,   1592,   1682,   1680,   1673,   4897,   4925,   4895,   4878
  1852,   1641,   1678,   1604,   1568,   4926,   4888,   4821,   4804
  1853,   1633,   1649,   1650,   1632,   4563,   4823,   4927,   4784
  1854,   1574,   1655,   1701,   1605,   4836,   3887,   4928,   4733
  1855,   1595,   1676,   1702,   1634,   4883,   4930,   4929,   4787
  1856,   1335,   1336,   1330,   1331,   4338,   4464,   4159,   4931
  1857,   1636,   1705,   1640,   1621,   4932,   4622,   4799,   4790
  1858,   1629,   1637,   1706,   1628,   4793,   4934,   4933,   4778
  1859,   1618,   1697,   1707,   1613,   4919,   4936,   4935,   4795
  1860,   1646,   1708,   1696,   1620,   4938,   4937,   4918,   4827
  1861,   1599,   1678,   1670,   1587,   4887,   4939,   4870,   4876
  1862,   1584,   1671,   1676,   1597,   4871,   4940,   4884,   4866
  1863,   1639,   1710,   1709,   1638,   4943,   4942,   4941,   4797
  1864,   1650,   1666,   1660,   1632,   4859,   4944,   4847,   4927
  1865,   1644,   1689,   1684,   1617,   4908,   4945,   4900,   4809
  1866,   1643,   1711,   1690,   1642,   4947,   4946,   4910,   4807
** ... 8 like lines cut
*ELEMENT, TYPE=S6, ELSET=Eall
  1875,   1198,   1172,   1271,   4959,   4958,   4245
*ELEMENT, TYPE=S8, ELSET=Eall
  1876,   1608,   1688,   1699,   1623,   4905,   4960,   4922,   4825
  1877,   1638,   1709,   1705,   1636,   4941,   4961,   4932,   4828
  1878,   1627,   1713,   1712,   1626,   4953,   4460,   4950,   4775
  1879,   1635,   1714,   1694,   1615,   4954,   4962,   4914,   4811
  1880,   1645,   1703,   1682,   1602,   4579,   4963,   4898,   4812
  1881,   1271,   1172,   1171,   1270,   4958,   3838,   4036,   4875
  1882,   1513,   1648,   1716,   1607,   4819,   4965,   4964,   4736
*ELEMENT, TYPE=S6, ELSET=Eall
  1883,   1195,   1131,   1239,   4967,   4966,   4184
*ELEMENT, TYPE=S8, ELSET=Eall
  1884,   1239,   1131,   1130,   1238,   4966,   3743,   3970,   4904
  1885,   1566,   1611,   1718,   1630,   4744,   4329,   4969,   4968
  1886,   1563,   1610,   1719,   1648,   4742,   4971,   4970,   4820
  1887,   1589,   1667,   1720,   1671,   4861,   4973,   4972,   4872
  1888,   1600,   1681,   1721,   1674,   4896,   4566,   4974,   4880
  1889,   1610,   1605,   1701,   1719,   4757,   4928,   4975,   4971
  1890,   1575,   1659,   1722,   1656,   4844,   3839,   3889,   4839
  1891,   1582,   1668,   1723,   1666,   4863,   4977,   4976,   4860
  1892,   1658,   1724,   1677,   1596,   4979,   4978,   4886,   4842
*ELEMENT, TYPE=S6, ELSET=Eall
  1893,   1691,   1747,   1708,   4981,   4980,   4952
*ELEMENT, TYPE=S8, ELSET=Eall
  1894,   1692,   1750,   1747,   1691,   4983,   4982,   4981,   4618
  1895,   1661,   1725,   1667,   1569,   4985,   4984,   4862,   4848
  1896,   1579,   1663,   1683,   1662,   4853,   4546,   4986,   4852
  1897,   1662,   1726,   1661,   1578,   4988,   4987,   4849,   4851
  1898,   1664,   1727,   1652,   1594,   4990,   4989,   4832,   4855
  1899,   1669,   1728,   1679,   1585,   4992,   4991,   4893,   4867
  1900,   1670,   1729,   1658,   1576,   4994,   4993,   4843,   4869
  1901,   1577,   1679,   1730,   1659,   4892,   4995,   3746,   4845
  1902,   1715,   1731,   1663,   1624,   4996,   4545,   4854,   4956
  1903,   1672,   1732,   1664,   1580,   4998,   4997,   4856,   4873
  1904,   1630,   1718,   1733,   1717,   4969,   4335,   5000,   4999
  1905,   1639,   1675,   1734,   1710,   3973,   5002,   5001,   4943
  1906,   1674,   1735,   1672,   1593,   5004,   5003,   4874,   4879
  1907,   1653,   1734,   1675,   1603,   5005,   5002,   4881,   4833
  1908,   1677,   1736,   1668,   1590,   5007,   5006,   4864,   4885
  1909,   1601,   1680,   1737,   1669,   4894,   5009,   5008,   4868
  1910,   1229,   1228,   1335,   1331,   3952,   4166,   4931,   4915
  1911,   1695,   1721,   1651,   1619,   5010,   4567,   4830,   4916
  1912,   1564,   1469,   1441,   1426,   5012,   5011,   4456,   4642
  1913,   1690,   1739,   1738,   1689,   5014,   4251,   5013,   4909
** ... 8 like lines cut
*ELEMENT, TYPE=S6, ELSET=Eall
  1922,   1181,   1192,     58,   5029,   3876,   3855
*ELEMENT, TYPE=S8, ELSET=Eall
  1923,   1230,   1286,   1192,   1181,   4157,   4104,   5029,   3955
  1924,   1688,   1746,   1742,   1699,   5030,   4554,   5022,   4960
  1925,   1689,   1738,   1726,   1684,   5013,   5031,   5026,   4945
*ELEMENT, TYPE=S6, ELSET=Eall
  1926,   1356,   1363,   1290,   4398,   4248,   4211
*ELEMENT, TYPE=S8, ELSET=Eall
  1927,   1706,   1717,   1733,   1714,   5032,   5000,   5025,   4955
  1928,   1546,   1485,   1394,   1475,   4800,   4484,   4463,   5033
  1929,   1704,   1748,   1737,   1703,   5035,   5034,   5015,   4577
  1930,   1499,   1549,   1546,   1475,   4612,   5036,   5033,   4286
  1931,   1694,   1749,   1729,   1693,   5039,   5038,   5037,   4913
  1932,   1708,   1747,   1741,   1696,   4980,   5040,   5018,   4937
  1933,   1701,   1722,   1744,   1719,   3888,   3840,   5028,   4975
  1934,   1687,   1609,   1523,   1514,   4907,   4911,   5042,   5041
  1935,   1671,   1720,   1702,   1676,   4972,   5043,   4930,   4940
  1936,   1712,   1739,   1690,   1711,   4461,   5014,   4946,   4949
  1937,   1700,   1670,   1678,   1641,   5044,   4939,   4926,   4923
  1938,   1652,   1727,   1745,   1653,   4989,   5046,   5045,   4951
  1939,   1607,   1716,   1751,   1686,   4964,   5048,   5047,   4903
  1940,   1523,   1417,   1423,   1514,   4758,   4445,   4537,   5042
  1941,   1694,   1743,   1724,   1749,   5023,   5050,   5049,   5039
  1942,   1686,   1751,   1746,   1685,   5047,   4509,   5051,   4902
  1943,   1704,   1698,   1728,   1748,   4606,   5020,   5052,   5035
  1944,   1700,   1693,   1729,   1670,   4924,   5037,   4994,   5044
  1945,   1549,   1411,   1551,   1546,   4613,   4616,   4802,   5036
  1946,   1721,   1695,   1735,   1674,   5010,   5016,   5004,   4974
** ... 8 like lines cut
*ELEMENT, TYPE=S6, ELSET=Eall
  1955,   1756,   1731,   1715,   5059,   4996,   5058
*ELEMENT, TYPE=S8, ELSET=Eall
  1956,   1732,   1755,   1727,   1664,   5061,   5060,   4990,   4997
  1957,   1723,   1668,   1736,   1752,   4977,   5006,   5063,   5062
  1958,   1709,   1750,   1692,   1705,   5064,   4983,   4621,   4961
  1959,   1737,   1748,   1728,   1669,   5034,   5052,   4992,   5008
  1960,   1725,   1754,   1720,   1667,   4168,   5057,   4973,   4984
  1961,   1697,   1723,   1752,   1707,   5019,   5062,   4337,   4936
  1962,   1745,   1755,   1747,   1750,   5067,   5066,   4982,   5065
  1963,   1734,   1653,   1745,   1710,   5005,   5045,   5068,   5001
  1964,   1743,   1733,   1752,   1736,   5024,   4336,   5063,   5054
  1965,   1710,   1745,   1750,   1709,   5068,   5065,   5064,   4942
*ELEMENT, TYPE=S6, ELSET=Eall
  1966,   1469,   1390,   1441,   4435,   4378,   5011
*ELEMENT, TYPE=S8, ELSET=Eall
  1967,   1741,   1747,   1755,   1732,   5040,   5066,   5061,   5056
  1968,   1630,   1717,   1706,   1637,   4999,   5032,   4934,   5069
  1969,   1566,   1630,   1637,   1537,   4968,   5069,   4794,   4650
  1970,   1616,   1731,   1756,   1657,   4548,   5059,   5070,   4841
*ELEMENT, TYPE=S6, ELSET=Eall
  1971,   1685,   1687,   1606,   5053,   5055,   4901
*ELEMENT, TYPE=S8, ELSET=Eall
  1972,   1376,   1473,   1474,   1355,   4454,   4039,   4572,   5071
  1973,   1716,   1744,   1753,   1751,   5027,   3841,   4511,   5048
  1974,   1277,   1376,   1355,   1249,   4265,   5071,   4207,   4056
  1975,    292,   1172,   1198,   1091,   3837,   4959,   4050,   5072
  1976,    291,    292,   1091,     45,   2028,   5072,   3655,   4603
  1977,    289,   1131,   1195,   1132,   3742,   4967,   3939,   5073
  1978,    290,    289,   1132,     52,   2025,   5073,   3750,   4588
  1979,   1657,   1756,   1715,   1665,   5070,   5058,   4957,   4858
*ELEMENT, TYPE=S6, ELSET=Eall
  1980,   1727,   1755,   1745,   5060,   5067,   5046
*ELEMENT, TYPE=S8, ELSET=Eall
  1981,      9,     10,    342,    337,   1855,   2090,   5074,   2084
  1982,    337,    342,    343,    338,   5074,   2091,   5075,   2085
  1983,    338,    343,    344,    339,   5075,   2092,   5076,   2086
  1984,    339,    344,    345,    340,   5076,   2093,   5077,   2087
  1985,    340,    345,    346,    341,   5077,   2094,   5078,   2088
  1986,    341,    346,     48,     47,   5078,   2095,   2076,   2089
  1987,     17,     18,    352,    347,   1859,   2102,   5079,   2096
  1988,    347,    352,    353,    348,   5079,   2103,   5080,   2097
  1989,    348,    353,    354,    349,   5080,   2104,   5081,   2098
  1990,    349,    354,    355,    350,   5081,   2105,   5082,   2099
  1991,    350,    355,    356,    351,   5082,   2106,   5083,   2100
  1992,    351,    356,     60,     59,   5083,   2107,   2082,   2101
  1993,     15,     16,    362,    357,   1858,   2114,   5084,   2108
  1994,    357,    362,    363,    358,   5084,   2115,   5085,   2109
  1995,    358,    363,    364,    359,   5085,   2116,   5086,   2110
  1996,    359,    364,    365,    360,   5086,   2117,   5087,   2111
  1997,    360,    365,    366,    361,   5087,   2118,   5088,   2112
  1998,    361,    366,     46,     45,   5088,   2119,   2075,   2113
  1999,     11,     12,    372,    367,   1856,   2126,   5089,   2120
  2000,    367,    372,    373,    368,   5089,   2127,   5090,   2121
** ... 34 like lines cut
** Names based on floor2
*NSET,NSET=floor2 
41, 
42, 
43, 
44, 
45, 
46, 
47, 
48, 
49, 
50, 
51, 
52, 
53, 
54, 
55, 
56, 
57, 
58, 
59, 
60, 
** ... 2287 like lines cut
*ELSET,ELSET=floor2 
1233, 
1234, 
1235, 
1236, 
1237, 
1238, 
1239, 
1240, 
1241, 
1242, 
1243, 
1244, 
1245, 
1246, 
1247, 
1248, 
1249, 
1250, 
1251, 
1252, 
** ... 728 like lines cut
** Names based on S6
*ELSET,ELSET=S6 
482, 
546, 
589, 
640, 
661, 
777, 
830, 
855, 
860, 
870, 
877, 
888, 
891, 
892, 
898, 
955, 
966, 
1030, 
1056, 
1069, 
** ... 42 like lines cut
** Names based on column
*ELSET,ELSET=column 
1179, 
1180, 
1181, 
1182, 
1183, 
1184, 
1185, 
1186, 
1187, 
1188, 
1189, 
1190, 
1191, 
1192, 
1193, 
1194, 
1195, 
1196, 
1197, 
1198, 
** ... 88 like lines cut
** Names based on sup2
*NSET,NSET=sup2 
31, 
32, 
1920, 
** Names based on sups1
*NSET,NSET=sups1 
23, 
24, 
25, 
26, 
27, 
28, 
29, 
30, 
33, 
34, 
35, 
36, 
37, 
38, 
39, 
40, 
1868, 
1881, 
1894, 
1907, 
** ... 4 like lines cut
** Names based on floor1
*NSET,NSET=floor1 
1, 
2, 
3, 
4, 
5, 
6, 
7, 
8, 
9, 
10, 
11, 
12, 
13, 
14, 
15, 
16, 
17, 
18, 
19, 
20, 
** ... 2278 like lines cut
*ELSET,ELSET=floor1 
436, 
437, 
438, 
439, 
440, 
441, 
442, 
443, 
444, 
445, 
446, 
447, 
448, 
449, 
450, 
451, 
452, 
453, 
454, 
455, 
** ... 723 like lines cut
** Names based on S8R
*ELSET,ELSET=S8R 
436, 
437, 
438, 
439, 
440, 
441, 
442, 
443, 
444, 
445, 
446, 
447, 
448, 
449, 
450, 
451, 
452, 
453, 
454, 
455, 
** ... 1517 like lines cut
** Surfaces based on sup2
*SURFACE, NAME=sup2
** Surfaces based on S6
*SURFACE, NAME=S6
** Surfaces based on all
*SURFACE, NAME=all
459, SPOS 
460, SPOS 
436, SPOS 
891, SPOS 
483, SPOS 
870, SPOS 
506, SPOS 
507, SPOS 
1226, SPOS 
2023, SPOS 
530, SPOS 
531, SPOS 
471, SPOS 
472, SPOS 
550, SPOS 
544, SPOS 
1208, SPOS 
2005, SPOS 
532, SPOS 
533, SPOS 
** ... 1579 like lines cut
** Surfaces based on column
*SURFACE, NAME=column
** Surfaces based on sups1
*SURFACE, NAME=sups1
** Surfaces based on floor2
*SURFACE, NAME=floor2
1256, SPOS 
1257, SPOS 
1233, SPOS 
1681, SPOS 
1280, SPOS 
1669, SPOS 
1303, SPOS 
1304, SPOS 
1682, SPOS 
1234, SPOS 
1976, SPOS 
1327, SPOS 
1302, SPOS 
1345, SPOS 
1328, SPOS 
1255, SPOS 
1339, SPOS 
1673, SPOS 
1978, SPOS 
1281, SPOS 
** ... 728 like lines cut
** Surfaces based on S8R
*SURFACE, NAME=S8R
** Surfaces based on floor1
*SURFACE, NAME=floor1
459, SPOS 
460, SPOS 
436, SPOS 
891, SPOS 
483, SPOS 
870, SPOS 
506, SPOS 
507, SPOS 
530, SPOS 
531, SPOS 
471, SPOS 
472, SPOS 
550, SPOS 
544, SPOS 
532, SPOS 
533, SPOS 
554, SPOS 
552, SPOS 
545, SPOS 
553, SPOS 
** ... 723 like lines cut


**extra nodes
*NODE, NSET=midsup
6031,0.000000000000e+00,-1.250000000000e-01,0.000000000000e+00
6032,0.000000000000e+00,1.250000000000e-01,0.000000000000e+00
6920,0.000000000000e+00,0.000000000000e+00,0.000000000000e+00

*MATERIAL,NAME=concrete
*ELASTIC
1E+10,0.2


*DENSITY
2.4000E+03
*EXPANSION
1.0000E-05


*SHELL SECTION,MATERIAL=concrete,ELSET=Eall,,OFFSET=0.0000E+00
2.0000E-01

*SHELL SECTION,MATERIAL=concrete,ELSET=column,,OFFSET=0.0000E+00
0.35

*BOUNDARY
sups1,1,1,0
sups1,2,2,0
sups1,3,3,0
sups1,5,5,0

**BOUNDARY
**sup2,1,1,0
**sup2,2,2,0
**sup2,3,3,0

*BOUNDARY
midsup,1,1,0
midsup,2,2,0
midsup,3,3,0

*EQUATION
2
31,1,1,6031,1,-1
*EQUATION
2
31,2,1,6031,2,-1
*EQUATION
2
31,3,1,6031,3,-1

*EQUATION
2
32,1,1,6032,1,-1
*EQUATION
2
32,2,1,6032,2,-1
*EQUATION
2
32,3,1,6032,3,-1

*EQUATION
2
1920,1,1,6920,1,-1
*EQUATION
2
1920,2,1,6920,2,-1
*EQUATION
2
1920,3,1,6920,3,-1




** sample
** defines a time points sequence with name T1
** consisting of the time points 0, 0.1, 0.2, .., 1.
** The time used is the local step time.
** use 'TIME POINTS=<name> for output cards

*TIME POINTS,NAME=T1,generate
0,1,1e-3







*STEP
*STATIC

*DLOAD
Eall,GRAV,9.8100E+00,0,0,-1

*DLOAD
** Pressure based on floor1
459, P, 5.000000e+03
460, P, 5.000000e+03
436, P, 5.000000e+03
891, P, 5.000000e+03
483, P, 5.000000e+03
870, P, 5.000000e+03
506, P, 5.000000e+03
507, P, 5.000000e+03
530, P, 5.000000e+03
531, P, 5.000000e+03
471, P, 5.000000e+03
472, P, 5.000000e+03
550, P, 5.000000e+03
544, P, 5.000000e+03
532, P, 5.000000e+03
533, P, 5.000000e+03
554, P, 5.000000e+03
552, P, 5.000000e+03
545, P, 5.000000e+03
553, P, 5.000000e+03
** ... 723 like lines cut

*DLOAD
** Pressure based on floor2
1256, P, 5.000000e+03
1257, P, 5.000000e+03
1233, P, 5.000000e+03
1681, P, 5.000000e+03
1280, P, 5.000000e+03
1669, P, 5.000000e+03
1303, P, 5.000000e+03
1304, P, 5.000000e+03
1682, P, 5.000000e+03
1234, P, 5.000000e+03
1976, P, 5.000000e+03
1327, P, 5.000000e+03
1302, P, 5.000000e+03
1345, P, 5.000000e+03
1328, P, 5.000000e+03
1255, P, 5.000000e+03
1339, P, 5.000000e+03
1673, P, 5.000000e+03
1978, P, 5.000000e+03
1281, P, 5.000000e+03
** ... 728 like lines cut

  *NODE FILE 
U,
  *EL FILE
S,ENER,
*NODE PRINT,NSET=sups1
RF
*NODE PRINT,NSET=sup2
RF
*END STEP




*STEP,  nlgeom, inc=10000000

*DYNAMIC,
1.E-2,1,1.E-4,1.E-3


** boundary conditions (with amplitude card, if variable)
*EQUATION,REMOVE
31,1,3
32,1,3
1920,1,3




**Output (frd file)
**Displacements
*node file,TIMEPOINTS=T1
u

**Stress
*el file,TIMEPOINTS=T1
s

*endstep


