*NODE, NSET=Nall
       1,5.000000000000e+00,5.000000000000e+00,-8.326672684689e-16
       2,5.000000000000e+00,-5.000000000000e+00,-8.326672684689e-16
       3,-5.000000000000e+00,-5.000000000000e+00,-8.326672684689e-16
       4,-5.000000000000e+00,5.000000000000e+00,-8.326672684689e-16
       5,0.000000000000e+00,0.000000000000e+00,5.000000000000e+00
       6,2.500000000000e+00,2.500000000000e+00,7.000000000000e+00
       7,2.500000000000e+00,-2.500000000000e+00,7.000000000000e+00
       8,-2.500000000000e+00,-2.500000000000e+00,7.000000000000e+00
       9,-2.500000000000e+00,2.500000000000e+00,7.000000000000e+00
      10,0.000000000000e+00,2.500000000000e+00,5.000000000000e+00
      11,2.500000000000e+00,0.000000000000e+00,5.000000000000e+00
      12,0.000000000000e+00,-2.500000000000e+00,5.000000000000e+00
      13,-2.500000000000e+00,0.000000000000e+00,5.000000000000e+00
      14,0.000000000000e+00,0.000000000000e+00,1.050000000000e+01
      15,2.000000000000e+00,2.000000000000e+00,1.400000000000e+01
      16,2.000000000000e+00,-2.000000000000e+00,1.400000000000e+01
      17,-2.000000000000e+00,-2.000000000000e+00,1.400000000000e+01
      18,-2.000000000000e+00,2.000000000000e+00,1.400000000000e+01
      19,0.000000000000e+00,2.250000000000e+00,1.050000000000e+01
      20,2.250000000000e+00,0.000000000000e+00,1.050000000000e+01
** ... 213 like lines cut
*ELEMENT, TYPE=B32, ELSET=Eall
     1,      1,     52,      5
     2,      2,     53,      5
     3,      3,     54,      5
     4,      4,     55,      5
     5,      1,     56,      6
     6,      2,     57,      7
     7,      3,     58,      8
     8,      4,     59,      9
     9,      5,     60,      6
    10,      5,     61,      7
    11,      5,     62,      8
    12,      5,     63,      9
    13,      6,     64,      7
    14,      7,     65,      8
    15,      8,     66,      9
    16,      9,     67,      6
    17,      1,     68,     10
    18,      1,     69,     11
    19,      2,     70,     11
    20,      2,     71,     12
** ... 162 like lines cut

*NSET,NSET=Nbound 
1, 
2, 
3, 
4, 

*Material, Name=Al
*Elastic
70000,0.3

*BEAM SECTION, MATERIAL=Al,ELSET=Eall, OFFSET1=0.04, OFFSET2=0.04, SECTION=RECT
0.04,0.04
0,0,-1


*BOUNDARY
Nbound,1,6

*STEP
*STATIC
*CLOAD
46,	2,	-1000
51,	2,	-1000
*NODE PRINT,NSET=Nall
U
*EL PRINT,ELSET=Eall
S
E
*NODE FILE, output=3D
u
rf
*EL FILE
S, E
*END STEP

