*Heading
** 
*Preprint, echo=NO, model=NO, history=NO, contact=NO
**
** PARTS
**
*Part, name=Part-2
*Node
      1, -0.945218086, -0.304610372
      2,  -0.90351665, -0.346482337
      3, -0.896445632, -0.353553385
      4,  -1.23585737, 0.0141426353
      5,  -1.24297142, 0.00702862535
      6,  -1.32071018, -0.0707101747
      7,  -1.26414168, -0.014141636
      8,  -1.60355234,  0.353553385
      9,  -1.96474946,  0.714750409
     10,  -1.55479658,  0.304627091
     11,  -1.59648132,  0.346482337
     12,  -1.25702584, -0.00702585559
     13,  -1.55461121,  0.304782748
     14,  -1.17928886, 0.0707111806
     15,  -2.49999905,         1.25
     16, -0.535248578, -0.714750409
     17,  9.99999997e-07,        -1.25
     18,  0.771959066,        -1.25
     19, -0.471912175,           0.
     20,  -1.73749995,         1.25
** ... 858 like lines cut
*Element, type=CPE3
1,  3, 34,  2
2,  1, 31, 37
3, 88, 40, 41
34, 436,   8, 125
35, 140, 141, 142
36,   9, 141, 140
37, 114, 451, 113
38, 496, 437, 477
39, 483, 467, 479
40, 151, 494, 150
41, 497, 439, 438
42, 488, 474, 475
43, 489, 147, 148
44, 476, 488, 475
45, 490, 149, 150
46, 139, 487, 138
47, 488, 147, 489
48, 471, 490, 150
49, 459, 494, 151
50, 499, 489, 492
** ... 62 like lines cut
*Element, type=CPE4R
 4, 34, 35, 33,  2
 5, 36, 37, 31, 32
 6, 43, 44, 85, 86
 7, 50, 51, 78, 79
 8, 42, 43, 86, 87
 9, 32, 33, 35, 36
10,  1, 37, 38, 90
11, 90, 38, 39, 89
12, 89, 39, 40, 88
13, 41, 42, 87, 88
14, 44, 45, 84, 85
15, 45, 46, 83, 84
16, 46, 47, 82, 83
17, 47, 48, 81, 82
18, 48, 49, 80, 81
19, 79, 80, 49, 50
20, 51, 52, 77, 78
21, 52, 53, 76, 77
22, 53, 54, 75, 76
23, 54, 55, 74, 75
** ... 727 like lines cut
*Nset, nset=Vein
   1,   2,   3,   4,   5,   7,   8,  10,  11,  12,  13,  21,  31,  32,  33,  34
  35,  36,  37,  38,  39,  40,  41,  42,  43,  44,  45,  46,  47,  48,  49,  50
  51,  52,  53,  54,  55,  56,  57,  58,  59,  60,  61,  62,  63,  64,  65,  66
  67,  68,  69,  70,  71,  72,  73,  74,  75,  76,  77,  78,  79,  80,  81,  82
  83,  84,  85,  86,  87,  88,  89,  90,  93,  94,  95,  96,  97,  98,  99, 100
 101, 102, 103, 104, 105, 106, 107, 108, 109, 110, 111, 112, 113, 114, 115, 116
 117, 118, 119, 120, 121, 122, 123, 124, 152, 153, 154, 155, 156, 157, 158, 159
 160, 161, 162, 163, 164, 165, 166, 167, 168, 169, 170, 171, 172, 173, 174, 175
 176, 177, 178, 179, 180, 181, 182, 183, 184, 185, 186, 187, 188, 189, 190, 191
 192, 193, 194, 195, 196, 197, 198, 199, 200, 201, 202, 203, 204, 205, 206, 207
 208, 209, 210, 211, 212, 213, 214, 215, 216, 217, 218, 219, 220, 221, 222, 223
 224, 225, 226, 227, 228, 229, 230, 231, 232, 233, 234, 235, 236, 237, 238, 239
 240, 241, 242, 295, 296, 297, 298, 299, 300, 301, 302, 303, 304, 305, 306, 307
 308, 309, 310, 311, 312, 313, 314, 315, 316, 317, 318, 319, 320, 321, 322, 323
 324, 325, 326, 327, 328, 329, 330, 331, 332, 333, 334, 335, 336, 337, 338, 339
 340, 341, 342, 343, 344, 345, 346, 347, 348, 349, 350, 351, 352, 353, 354
*Elset, elset=Vein
   1,   2,   3,   4,   5,   6,   7,   8,   9,  10,  11,  12,  13,  14,  15,  16
  17,  18,  19,  20,  21,  22,  23,  24,  25,  26,  27,  28,  29,  30,  31,  32
  33, 139, 140, 141, 142, 143, 144, 145, 146, 147, 148, 149, 150, 151, 152, 153
 154, 155, 156, 157, 158, 159, 160, 161, 162, 163, 164, 165, 166, 167, 168, 169
 170, 171, 172, 173, 174, 175, 176, 177, 178, 179, 180, 181, 182, 183, 184, 185
 186, 187, 188, 189, 190, 191, 192, 193, 194, 195, 196, 197, 198, 199, 200, 201
 202, 203, 204, 416, 417, 418, 419, 420, 421, 422, 423, 424, 425, 426, 427, 428
 429, 430, 431, 432, 433, 434, 435, 436, 437, 438, 439, 440, 441, 442, 443, 444
 445, 446, 447, 448
*Nset, nset=Rock
   3,   4,   6,   7,   8,   9,  14,  15,  16,  17,  18,  19,  20,  22,  23,  24
  25,  26,  27,  28,  29,  30,  34,  35,  36,  37,  38,  39,  40,  41,  42,  43
  44,  45,  46,  47,  48,  49,  50,  51,  52,  53,  54,  55,  56,  57,  58,  59
  60,  61,  62,  63,  64,  91,  92,  93,  94,  95,  96,  97,  98,  99, 100, 101
 102, 103, 104, 105, 106, 107, 108, 109, 110, 111, 112, 113, 114, 115, 116, 117
 118, 119, 120, 121, 122, 123, 124, 125, 126, 127, 128, 129, 130, 131, 132, 133
 134, 135, 136, 137, 138, 139, 140, 141, 142, 143, 144, 145, 146, 147, 148, 149
 150, 151, 211, 212, 213, 214, 215, 216, 217, 218, 219, 220, 221, 222, 223, 224
 225, 226, 227, 228, 229, 230, 231, 232, 233, 234, 235, 236, 237, 238, 239, 240
 241, 242, 243, 244, 245, 246, 247, 248, 249, 250, 251, 252, 253, 254, 255, 256
 257, 258, 259, 260, 261, 262, 263, 264, 265, 266, 267, 268, 269, 270, 271, 272
 273, 274, 275, 276, 277, 278, 279, 280, 281, 282, 283, 284, 285, 286, 287, 288
 289, 290, 291, 292, 293, 294, 324, 325, 326, 327, 328, 329, 330, 331, 332, 333
 334, 335, 336, 337, 338, 339, 340, 341, 342, 343, 344, 345, 346, 347, 348, 349
 350, 351, 352, 353, 354, 355, 356, 357, 358, 359, 360, 361, 362, 363, 364, 365
 366, 367, 368, 369, 370, 371, 372, 373, 374, 375, 376, 377, 378, 379, 380, 381
 382, 383, 384, 385, 386, 387, 388, 389, 390, 391, 392, 393, 394, 395, 396, 397
 398, 399, 400, 401, 402, 403, 404, 405, 406, 407, 408, 409, 410, 411, 412, 413
 414, 415, 416, 417, 418, 419, 420, 421, 422, 423, 424, 425, 426, 427, 428, 429
 430, 431, 432, 433, 434, 435, 436, 437, 438, 439, 440, 441, 442, 443, 444, 445
** ... 28 like lines cut
*Elset, elset=Rock
  34,  35,  36,  37,  38,  39,  40,  41,  42,  43,  44,  45,  46,  47,  48,  49
  50,  51,  52,  53,  54,  55,  56,  57,  58,  59,  60,  61,  62,  63,  64,  65
  66,  67,  68,  69,  70,  71,  72,  73,  74,  75,  76,  77,  78,  79,  80,  81
  82,  83,  84,  85,  86,  87,  88,  89,  90,  91,  92,  93,  94,  95,  96,  97
  98,  99, 100, 101, 102, 103, 104, 105, 106, 107, 108, 109, 110, 111, 112, 113
 114, 115, 116, 117, 118, 119, 120, 121, 122, 123, 124, 125, 126, 127, 128, 129
 130, 131, 132, 133, 134, 135, 136, 137, 138, 205, 206, 207, 208, 209, 210, 211
 212, 213, 214, 215, 216, 217, 218, 219, 220, 221, 222, 223, 224, 225, 226, 227
 228, 229, 230, 231, 232, 233, 234, 235, 236, 237, 238, 239, 240, 241, 242, 243
 244, 245, 246, 247, 248, 249, 250, 251, 252, 253, 254, 255, 256, 257, 258, 259
 260, 261, 262, 263, 264, 265, 266, 267, 268, 269, 270, 271, 272, 273, 274, 275
 276, 277, 278, 279, 280, 281, 282, 283, 284, 285, 286, 287, 288, 289, 290, 291
 292, 293, 294, 295, 296, 297, 298, 299, 300, 301, 302, 303, 304, 305, 306, 307
 308, 309, 310, 311, 312, 313, 314, 315, 316, 317, 318, 319, 320, 321, 322, 323
 324, 325, 326, 327, 328, 329, 330, 331, 332, 333, 334, 335, 336, 337, 338, 339
 340, 341, 342, 343, 344, 345, 346, 347, 348, 349, 350, 351, 352, 353, 354, 355
 356, 357, 358, 359, 360, 361, 362, 363, 364, 365, 366, 367, 368, 369, 370, 371
 372, 373, 374, 375, 376, 377, 378, 379, 380, 381, 382, 383, 384, 385, 386, 387
 388, 389, 390, 391, 392, 393, 394, 395, 396, 397, 398, 399, 400, 401, 402, 403
 404, 405, 406, 407, 408, 409, 410, 411, 412, 413, 414, 415, 449, 450, 451, 452
** ... 24 like lines cut
*Nset, nset=LS
  18,  19,  20,  22,  23,  24,  25,  26,  27,  28,  29,  30, 278, 279, 280, 281
 282, 283, 284, 285, 286, 287, 288, 289, 290, 291, 383, 384, 385, 386, 387, 388
 389, 391, 392, 393, 394, 395, 396, 397, 399, 400, 401, 402, 403, 404, 405, 407
 408, 409, 410, 411, 412, 413, 415, 416, 417, 418, 419, 420, 421, 422, 423, 424
 425, 426, 427, 428
*Elset, elset=LS
 350, 355, 356, 357, 373, 377, 384, 385, 386, 388, 389, 392, 397, 398, 399, 408
 657, 658, 659, 660, 661, 662, 663, 664, 665, 666, 667, 668, 669, 670, 671, 672
 673, 674, 675, 676, 677, 678, 679, 680, 681, 682, 683, 684, 685, 686, 687, 688
 689, 690, 691, 692, 693, 694, 695, 696, 697, 698, 699, 700, 701, 702, 703, 704
 705, 706, 707, 708, 709, 710, 711, 712, 713, 714, 715, 716, 717, 718, 719, 720
 745, 751, 752, 781, 785, 788, 799, 800, 802, 804, 808, 811, 813, 817, 819, 823
** Section: Vein
*Solid Section, elset=Vein, material=Vein
1.,
** Section: Rock
*Solid Section, elset=Rock, material=Rock
1.,
*End Part
**  
**
** ASSEMBLY
**
*Assembly, name=Assembly
**  
*Instance, name=Part-1-1, part=Part-2
*End Instance
**  
*Nset, nset=BOT, instance=Part-1-1
  17,  18,  22,  24,  27, 275, 276, 277, 382, 406, 433, 434, 435
*Elset, elset=BOT, instance=Part-1-1
 347, 348, 350, 402, 664, 672, 673, 681, 760, 796, 798, 815
*Nset, nset=BV, instance=Part-1-1
 3,
*Nset, nset=LV, instance=Part-1-1
 7,
*Nset, nset=NearVein, instance=Part-1-1
   3,   4,   6,   7,   8,   9,  14,  16,  34,  35,  36,  37,  38,  39,  40,  41
  42,  43,  44,  45,  46,  47,  48,  49,  50,  51,  52,  53,  54,  55,  56,  57
  58,  59,  60,  61,  62,  63,  64,  91,  92,  93,  94,  95,  96,  97,  98,  99
 100, 101, 102, 103, 104, 105, 106, 107, 108, 109, 110, 111, 112, 113, 114, 115
 116, 117, 118, 119, 120, 121, 122, 123, 124, 125, 126, 127, 128, 129, 130, 131
 132, 133, 134, 135, 136, 137, 138, 139, 140, 141, 142, 143, 144, 145, 146, 147
 148, 149, 150, 151, 211, 212, 213, 214, 215, 216, 217, 218, 219, 220, 221, 222
 223, 224, 225, 226, 227, 228, 229, 230, 231, 232, 233, 234, 235, 236, 237, 238
 239, 240, 241, 242, 243, 244, 245, 246, 247, 248, 249, 250, 251, 252, 253, 254
 255, 260, 261, 262, 263, 264, 265, 266, 267, 268, 269, 270, 324, 325, 326, 327
 328, 329, 330, 331, 332, 333, 334, 335, 336, 337, 338, 339, 340, 341, 342, 343
 344, 345, 346, 347, 348, 349, 350, 351, 352, 353, 354, 355, 356, 357, 358, 359
 360, 361, 362, 363, 364, 365, 366, 367, 368, 369, 370, 371, 372, 373, 374, 375
 376, 377, 378, 379, 380, 381, 436, 437, 438, 439, 440, 441, 442, 443, 444, 445
 446, 447, 448, 449, 450, 451, 452, 453, 454, 455, 456, 457, 458, 459, 460, 461
 462, 463, 464, 465, 466, 467, 468, 469, 470, 471, 472, 473, 474, 475, 476, 477
 478, 479, 480, 481, 482, 483, 484, 485, 486, 487, 488, 489, 490, 491, 492, 493
 494, 495, 496, 497, 498, 499, 500, 501, 502, 503, 504, 505, 506, 507, 508, 509
 510, 511, 512, 513, 514, 515, 516, 517, 518, 519, 520, 521, 522, 523, 524, 525
 526, 527, 528, 529, 530, 531, 532, 533, 534, 535, 536, 537, 538, 539, 540, 541
** ... 10 like lines cut
*Elset, elset=NearVein, instance=Part-1-1
  34,  35,  36,  37,  38,  39,  40,  41,  42,  43,  44,  45,  46,  47,  48,  49
  50,  51,  52,  53,  54,  55,  56,  57,  58,  59,  60,  61,  62,  63,  64,  65
  66,  67,  68,  69,  70,  71,  72,  73,  74,  75,  76,  77,  78,  79,  80,  81
  82,  83,  84,  85,  86,  87,  88,  89,  90,  91,  92,  93,  94,  95,  96,  97
  98,  99, 100, 101, 102, 103, 104, 105, 106, 107, 108, 109, 110, 111, 112, 113
 114, 115, 116, 117, 118, 119, 120, 121, 122, 123, 124, 125, 126, 127, 128, 129
 130, 131, 132, 133, 134, 135, 136, 137, 138, 205, 206, 207, 208, 209, 210, 211
 212, 213, 214, 215, 216, 217, 218, 219, 220, 221, 222, 223, 224, 225, 226, 227
 228, 229, 230, 231, 232, 233, 234, 235, 236, 237, 238, 239, 240, 241, 242, 243
 244, 245, 246, 247, 248, 249, 250, 251, 252, 253, 254, 255, 256, 257, 258, 259
 260, 261, 262, 263, 264, 265, 266, 267, 268, 269, 270, 271, 272, 273, 274, 275
 276, 277, 278, 279, 280, 281, 282, 283, 284, 285, 286, 287, 288, 289, 290, 291
 292, 293, 294, 295, 296, 297, 298, 299, 300, 301, 302, 303, 304, 305, 306, 307
 308, 309, 310, 311, 312, 449, 450, 451, 452, 453, 454, 455, 456, 457, 458, 459
 460, 461, 462, 463, 464, 465, 466, 467, 468, 469, 470, 471, 472, 473, 474, 475
 476, 477, 478, 479, 480, 481, 482, 483, 484, 485, 486, 487, 488, 489, 490, 491
 492, 493, 494, 495, 496, 497, 498, 499, 500, 501, 502, 503, 504, 505, 506, 507
 508, 509, 510, 511, 512, 513, 514, 515, 516, 517, 518, 519, 520, 521, 522, 523
 524, 525, 526, 527, 528, 529, 530, 531, 532, 533, 534, 535, 536, 537, 538, 539
 540, 541, 542, 543, 544, 545, 546, 547, 548, 549, 550, 551, 552, 553, 554, 555
** ... 7 like lines cut
*Nset, nset=RV, instance=Part-1-1
 4,
*Nset, nset=Set-10, instance=Part-1-1, generate
   1,  878,    1
*Elset, elset=Set-10, instance=Part-1-1, generate
   1,  829,    1
*Nset, nset=TOP, instance=Part-1-1
  15,  20,  28,  29,  30, 292, 293, 294, 414, 429, 430, 431, 432
*Elset, elset=TOP, instance=Part-1-1
 362, 366, 395, 398, 696, 704, 705, 713, 741, 742, 745, 816
*Nset, nset=TV, instance=Part-1-1
 8,
*Nset, nset=VI, instance=Part-1-1
   1,   5,  10,  12,  13,  21,  65,  66,  67,  68,  69,  70,  71,  72,  73,  74
  75,  76,  77,  78,  79,  80,  81,  82,  83,  84,  85,  86,  87,  88,  89,  90
 156, 157, 158, 159, 160, 161, 162, 163, 164, 165, 166, 167, 168, 169, 170, 171
 172, 173, 174, 175, 176, 177, 178, 179, 180, 181, 185, 186, 187, 188, 189, 190
 191, 192, 193, 194, 195, 196, 197, 198, 199, 200, 201, 202, 203, 204, 205, 206
 207, 208, 209, 210, 298, 299, 300, 301, 302, 303, 304, 305, 306, 307, 308, 309
 310, 311, 312, 313, 314, 315, 316, 317, 318, 319, 320, 321, 322, 323
*Elset, elset=VI, instance=Part-1-1
   6,   7,   8,  10,  11,  12,  13,  14,  15,  16,  17,  18,  19,  20,  21,  22
  23,  24,  25,  26,  27,  28,  29,  30,  31,  32,  33, 144, 145, 146, 148, 149
 150, 151, 152, 153, 154, 155, 156, 157, 158, 159, 160, 161, 162, 163, 164, 165
 166, 167, 168, 169, 170, 171, 173, 174, 175, 178, 181, 182, 183, 184, 185, 186
 187, 188, 189, 190, 191, 192, 193, 194, 195, 196, 197, 198, 199, 200, 201, 202
 203, 419, 420, 421, 425, 426, 427, 428, 429, 430, 431, 432, 433, 434, 435, 436
 437, 438, 439, 440, 441, 442, 443, 444, 445, 446, 447, 448
*Nset, nset=VO, instance=Part-1-1
   3,   4,   7,   8,  34,  35,  36,  37,  38,  39,  40,  41,  42,  43,  44,  45
  46,  47,  48,  49,  50,  51,  52,  53,  54,  55,  56,  57,  58,  59,  60,  61
  62,  63,  64,  93,  94,  95,  96,  97,  98,  99, 100, 101, 102, 103, 104, 105
 106, 107, 108, 109, 110, 111, 112, 113, 114, 115, 116, 117, 118, 119, 120, 121
 122, 123, 124, 211, 212, 213, 214, 215, 216, 217, 218, 219, 220, 221, 222, 223
 224, 225, 226, 227, 228, 229, 230, 231, 232, 233, 234, 235, 236, 237, 238, 239
 240, 241, 242, 324, 325, 326, 327, 328, 329, 330, 331, 332, 333, 334, 335, 336
 337, 338, 339, 340, 341, 342, 343, 344, 345, 346, 347, 348, 349, 350, 351, 352
 353, 354
*Elset, elset=VO, instance=Part-1-1
   1,   3,   4,   5,   6,   7,   8,   9,  10,  11,  12,  13,  14,  15,  16,  17
  18,  19,  20,  21,  22,  23,  24,  25,  26,  27,  28,  29,  30,  31,  32,  33
  37,  52,  53,  54,  58,  59,  60,  61,  62,  63,  64,  65,  66,  67,  69,  70
  71,  72,  73,  74,  88,  89,  91,  93,  98,  99, 100, 101, 102, 103, 106, 108
 111, 139, 140, 141, 142, 143, 144, 145, 146, 147, 148, 149, 150, 151, 152, 153
 154, 155, 156, 157, 158, 159, 160, 161, 162, 163, 164, 165, 166, 167, 168, 169
 170, 171, 172, 173, 174, 175, 176, 177, 178, 179, 180, 181, 182, 183, 184, 185
 186, 187, 188, 189, 190, 191, 192, 193, 194, 195, 196, 197, 198, 199, 200, 201
 202, 203, 204, 212, 225, 227, 228, 234, 238, 244, 245, 246, 247, 248, 249, 250
 251, 252, 253, 254, 255, 256, 257, 258, 259, 260, 262, 263, 264, 265, 268, 273
 274, 276, 277, 305, 416, 417, 419, 420, 421, 422, 423, 424, 425, 426, 427, 428
 429, 430, 431, 432, 433, 434, 435, 436, 437, 438, 439, 440, 441, 442, 443, 444
 445, 446, 447, 448, 452, 461, 463, 468, 471, 484, 485, 486, 487, 488, 489, 490
 491, 492, 493, 494, 495, 496, 497, 498, 499, 500, 501, 502, 503, 504, 505, 506
 507, 513, 515, 522, 567, 568, 569, 574, 575, 576, 577, 578, 579, 581, 582, 583
 584, 586, 587, 588, 589, 590, 592, 593, 594, 595, 605, 606, 607, 609, 612, 617
 619, 622, 625, 626
*Elset, elset=_BOT_S3, internal, instance=Part-1-1
 347, 348, 350, 402, 760, 796, 798, 815
*Elset, elset=_BOT_S2, internal, instance=Part-1-1
 664, 672
*Elset, elset=_BOT_S4, internal, instance=Part-1-1
 673, 681
*Surface, type=ELEMENT, name=BOT
_BOT_S3, S3
_BOT_S2, S2
_BOT_S4, S4
*Elset, elset=_IV_S3, internal, instance=Part-1-1
   6,   7,   8,  13,  14,  15,  16,  17,  18,  20,  21,  22,  23,  24,  25,  26
  27,  28,  29,  30,  31,  32, 144, 145, 146, 148, 149, 150, 151, 152, 153, 154
 155, 156, 157, 158, 159, 160, 161, 162, 163, 164, 165, 166, 167, 168, 169, 170
 425,
*Elset, elset=_IV_S4, internal, instance=Part-1-1
  10,  11,  12, 173, 182, 183, 184, 185, 186, 187, 188, 190, 191, 193, 195, 197
 198, 199, 200, 201, 202, 203, 419, 426, 427, 428, 429, 430, 431, 432, 434, 435
 437, 439, 442, 444, 445, 446, 447, 448
*Elset, elset=_IV_S1, internal, instance=Part-1-1
  19,  33, 171, 421, 443
*Elset, elset=_IV_S2, internal, instance=Part-1-1
 174, 175, 178, 181, 189, 192, 194, 196, 420, 433, 436, 438, 440, 441
*Surface, type=ELEMENT, name=IV
_IV_S3, S3
_IV_S4, S4
_IV_S2, S2
_IV_S1, S1
*Elset, elset=_LHS_S3, internal, instance=Part-1-1
 681, 682, 683, 684, 685, 686, 687, 688, 697, 698, 699, 700, 701, 702, 703, 704
*Surface, type=ELEMENT, name=LHS
_LHS_S3, S3
*Elset, elset=_RHS_S3, internal, instance=Part-1-1
 665, 666, 667, 668, 669, 670, 671, 672, 713, 714, 715, 716, 717, 718, 719, 720
*Surface, type=ELEMENT, name=RHS
_RHS_S3, S3
*Elset, elset=_TOP_S3, internal, instance=Part-1-1
 362, 366, 395, 398, 741, 742, 745
*Elset, elset=_TOP_S2, internal, instance=Part-1-1
 696, 704
*Elset, elset=_TOP_S4, internal, instance=Part-1-1
 705, 713
*Elset, elset=_TOP_S1, internal, instance=Part-1-1
 816,
*Surface, type=ELEMENT, name=TOP
_TOP_S3, S3
_TOP_S2, S2
_TOP_S4, S4
_TOP_S1, S1
*End Assembly
** 
** MATERIALS
** 
*Material, name=Rock
*Creep
 1e-19,1.,0.
*Elastic
 5e+10, 0.25
*Material, name=Vein
*Creep
 1e-22,1.,0.
*Elastic
 5e+10, 0.25
** ----------------------------------------------------------------
** 
** ----------------------------------------------------------------
** 
** STEP: creep
** 
*Step, name=creep, nlgeom=YES
*Visco
3.1536e+08, 3.1536e+10, 
** 
** BOUNDARY CONDITIONS
** 
*Boundary, type=VELOCITY
BOT, 1, 1, -7.9274e-12
BOT, 2, 2
*Boundary, type=VELOCITY
TOP, 1, 1, 7.9274e-12
TOP, 2, 2
** 
** LOADS
** 
**
** OUTPUT REQUESTS
** 
*Restart, write, frequency=0
** 
** FIELD OUTPUT: F-Output-1
** 
*Output, field, variable=PRESELECT
** 
** HISTORY OUTPUT: BV
** 
*Output, history
*Node Output, nset=BV
COOR1, COOR2,S
** 
** HISTORY OUTPUT: LV
** 
*Node Output, nset=LV
COOR1, COOR2
** 
** HISTORY OUTPUT: RV
** 
*Node Output, nset=RV
COOR1, COOR2
** 
** HISTORY OUTPUT: TV
** 
*Node Output, nset=TV
COOR1, COOR2,S
*End Step
