
*MATERIAL,NAME=steel
*ELASTIC
2.0000E+11,0.28


*DENSITY
7.8500E+03
*EXPANSION
1.3000E-05



*MATERIAL,NAME=steel
*ELASTIC
2.0000E+11,0.28


*DENSITY
7.8500E+03
*EXPANSION
1.3000E-05



*MATERIAL,NAME=steel
*ELASTIC
2.0000E+11,0.28


*DENSITY
7.8500E+03
*EXPANSION
1.3000E-05



*MATERIAL,NAME=steel
*ELASTIC
2.0000E+11,0.28


*DENSITY
7.8500E+03
*EXPANSION
1.3000E-05



*MATERIAL,NAME=absplastic
*ELASTIC
2.0000E+09,0.39


*DENSITY
1.0500E+03
*EXPANSION
0.0000E+00


