*HEADING
d/D=.5 D=.50 r_root=.080  only one cycle                                              
**
**     MESH GENERATED USING FASTQ        
**  NUMBER OF NODES:                       839
**  NUMBER OF ELEMENTS:                    779
**  NUMBER OF NODAL BOUNDARY CONDITIONS:     6
**  NUMBER OF SIDE BOUNDARY CONDITIONS:      0
**
*NODE
         1, 0.0000000E+00, 0.0000000E+00, 0.0000000E+00
         2, 0.8627525E-02, 0.0000000E+00, 0.0000000E+00
         3, 0.1684418E-01, 0.0000000E+00, 0.0000000E+00
         4, 0.2466956E-01, 0.0000000E+00, 0.0000000E+00
         5, 0.3212230E-01, 0.0000000E+00, 0.0000000E+00
         6, 0.3922015E-01, 0.0000000E+00, 0.0000000E+00
         7, 0.4598001E-01, 0.0000000E+00, 0.0000000E+00
         8, 0.5241797E-01, 0.0000000E+00, 0.0000000E+00
         9, 0.5854937E-01, 0.0000000E+00, 0.0000000E+00
        10, 0.6438879E-01, 0.0000000E+00, 0.0000000E+00
        11, 0.6995014E-01, 0.0000000E+00, 0.0000000E+00
        12, 0.7524667E-01, 0.0000000E+00, 0.0000000E+00
        13, 0.8029098E-01, 0.0000000E+00, 0.0000000E+00
        14, 0.8509509E-01, 0.0000000E+00, 0.0000000E+00
        15, 0.8967043E-01, 0.0000000E+00, 0.0000000E+00
        16, 0.9402789E-01, 0.0000000E+00, 0.0000000E+00
        17, 0.9817786E-01, 0.0000000E+00, 0.0000000E+00
        18, 0.1021302E+00, 0.0000000E+00, 0.0000000E+00
        19, 0.1058944E+00, 0.0000000E+00, 0.0000000E+00
        20, 0.1094793E+00, 0.0000000E+00, 0.0000000E+00
** ... 819 like lines cut
*ELEMENT, TYPE = CAX4, ELSET = MAT1
         1,         1,         2,        27,        26
         2,         2,         3,        28,        27
         3,         3,         4,        29,        28
         4,         4,         5,        30,        29
         5,         5,         6,        31,        30
         6,         6,         7,        32,        31
         7,         7,         8,        33,        32
         8,         8,         9,        34,        33
         9,         9,        10,        35,        34
        10,        10,        11,        36,        35
        11,        11,        12,        37,        36
        12,        12,        13,        38,        37
        13,        13,        14,        39,        38
        14,        14,        15,        40,        39
        15,        15,        16,        41,        40
        16,        16,        17,        42,        41
        17,        17,        18,        43,        42
        18,        18,        19,        44,        43
        19,        19,        20,        45,        44
        20,        20,        21,        46,        45
** ... 759 like lines cut
*NSET, NSET = NOTCH
       1,       2,       3,       4,       5,       6,       7,       8,       9
      10,      11,      12,      13,      14,      15,      16,      17,      18
      19,      20,      21,      22,      23,      24,      25,
*NSET, NSET = SIDE1
       1,      26,      51,      76,     101,     126,     151,     176,     201
     226,     251,     276,     301,     326,     351,     376,     401,     426
     451,     476,     501,     526,     551,
*NSET, NSET = SIDE2
     551,     597,     598,     599,     600,     601,     602,
*NSET, NSET = SIDE3
     597,     727,     730,     733,
*NSET, NSET = TOP
     833,     834,     835,     836,     837,     838,     839,
*NSET, NSET = SIDE4
     733,     770,     777,     784,     791,     798,     805,     812,     819
     826,     833,
**-----------------------------------------------------------------
** Append this file to abaqus input files created from FASTQ
** and check the names of the NSETS created vs. the names used
** below.
**-----------------------------------------------------------------
**
*ELSET, ELSET=NOTCH_RT
    24,
*NSET, NSET = GAGE
    587,
*SOLID SECTION, ELSET=MAT1, MATERIAL=AL2024
          1.,
** MATERIAL IS 2024-T851, POWER LAW DATA FIT
*MATERIAL, NAME=AL2024
**
*DENSITY
         0.1,
**
*USER MATERIAL, CONSTANTS=20
1.06E+7,0.323,0.041,0.27,
59000.,0.000000,
62792.,0.000252,
64448.,0.000381,
66673.,0.000686,
68958.,0.001828,
71117.,0.006557,
72234.,0.010395,
74500.,0.020000,
*DEPVAR
19,
**----------------------------
**LOAD CYCLE 1
*STEP, AMPLITUDE=RAMP, INC=200, NLGEOM,UNSYMM=YES
*STATIC
        0.025,          1.,      0.00001,         0.025
*BOUNDARY
NOTCH,  2,   2,
SIDE1,  1,   1,
SIDE2,  1,   1,
SIDE3,  1,   1,
SIDE4,  1,   1,
TOP,    2,   2,      .00367
*CLOAD, OP=NEW
*DLOAD, OP=NEW
**
*NODE PRINT, NSET=GAGE, FREQ=1
U,
**
*NODE PRINT, NSET=NOTCH, FREQ=1, TOTALS=YES
RF,
**
**NODE PRINT, NSET=TOP, FREQ=1
**U,
**
**EL PRINT, ELSET=NOTCH_RT,POSITION=INTEGRATION POINT, FREQ=1
**PEEQ,
**LE22,
**
*OUTPUT,FIELD,FREQUENCY=0
*OUTPUT,HISTORY,FREQUENCY=0
*EL FILE, FREQUENCY=0
**EL FILE, POSITION=INTEGRATION POINT, FREQ=5
**S,
**E
**
*END STEP