*node, nset=nall
1, 62.5, 0, -12.5
2, 57.4629, 0, -12.5
3, 59.9814, 0, -12.5
4, 52.4257, 0, -12.5
5, 54.9443, 0, -12.5
6, 47.3886, 0, -12.5
7, 49.9071, 0, -12.5
8, 41.5901, 0, -12.5
9, 44.4893, 0, -12.5
10, 36.0901, 0, -12.5
11, 38.8401, 0, -12.5
12, 31.0529, 0, -12.5
13, 33.5715, 0, -12.5
14, 26.0158, 0, -12.5
15, 28.5343, 0, -12.5
16, 20.9786, 0, -12.5
17, 23.4972, 0, -12.5
18, 15.2145, 0, -12.5
19, 18.0966, 0, -12.5
20, 10.1774, 0, -12.5
** ... 6093 like lines cut
*nset, nset=m_spina
261, 262, 263, 264, 265, 266, 267, 
268, 269, 270, 271, 272, 273, 274, 275, 
276, 277, 278, 279, 280, 281, 282, 283, 
284, 285, 286, 287, 288, 289, 290, 291, 
292, 293, 294, 295, 296, 297, 298, 299, 
300, 301, 302, 469, 470, 471, 472, 473, 
474, 475, 476, 477, 478, 479, 480, 481, 
482, 483, 484, 485, 486, 487, 488, 489, 
490, 491, 492, 493, 494, 495, 496, 497, 
498, 499, 500, 501, 502, 503, 504, 505, 
506, 507, 508, 509, 510, 511, 512, 513, 
514, 515, 516, 517, 518, 519, 520, 521, 
522, 523, 524, 525, 526, 527, 528, 529, 
530, 531, 532, 533, 534, 535, 536, 537, 
538, 539, 540, 541, 542, 
*nset, nset=m_fulcro
303, 304, 305, 306, 307, 308, 309, 
310, 311, 312, 313, 314, 315, 316, 317, 
318, 319, 320, 321, 322, 323, 324, 325, 
326, 327, 328, 329, 330, 331, 332, 333, 
334, 335, 336, 337, 338, 339, 340, 341, 
342, 343, 344, 1218, 1219, 1220, 1221, 1222, 
1223, 1224, 1225, 1226, 1227, 1228, 1229, 1230, 
1231, 1232, 1233, 1234, 1235, 1236, 1237, 1238, 
1239, 1240, 1241, 1242, 1243, 1244, 1245, 1246, 
1247, 1248, 1249, 1250, 1251, 1252, 1253, 1254, 
1255, 1256, 1257, 1258, 1259, 1260, 1261, 1262, 
1263, 1264, 1265, 1266, 1267, 1268, 1269, 1270, 
1271, 1272, 1273, 1274, 1275, 1276, 1277, 1278, 
1279, 1280, 1281, 1282, 1283, 1284, 1285, 1286, 
1287, 1288, 1289, 1290, 1291, 
*nset, nset=memb1
1, 2, 3, 4, 5, 6, 7, 
8, 9, 10, 11, 12, 13, 14, 15, 
16, 17, 18, 19, 20, 21, 22, 23, 
24, 25, 26, 27, 28, 29, 30, 31, 
32, 33, 34, 35, 36, 37, 38, 39, 
40, 41, 42, 43, 44, 45, 46, 47, 
48, 49, 50, 51, 52, 53, 54, 55, 
56, 57, 58, 59, 60, 61, 62, 63, 
64, 65, 66, 67, 68, 69, 70, 71, 
72, 73, 74, 75, 76, 77, 78, 79, 
80, 81, 82, 83, 84, 85, 86, 87, 
88, 89, 90, 91, 92, 93, 94, 95, 
96, 97, 98, 99, 100, 101, 102, 103, 
104, 105, 106, 107, 108, 109, 110, 111, 
112, 113, 114, 115, 116, 117, 118, 119, 
120, 121, 122, 123, 124, 125, 126, 127, 
128, 129, 130, 131, 132, 133, 134, 135, 
136, 137, 138, 139, 140, 141, 142, 143, 
144, 145, 146, 147, 148, 149, 150, 151, 
152, 153, 154, 155, 156, 157, 158, 159, 
** ... 358 like lines cut
*nset, nset=b_spina
4225, 4226, 4227, 4228, 4229, 4230, 4231, 
4232, 4233, 4234, 4235, 4236, 4237, 4238, 4239, 
4240, 4241, 4242, 4243, 4244, 4245, 4246, 4247, 
4248, 4249, 4250, 4251, 4252, 4253, 4254, 4255, 
4256, 4257, 4258, 4259, 4260, 4261, 4262, 4263, 
4264, 4265, 4266, 4267, 4268, 4269, 4270, 4271, 
4272, 4273, 4274, 4275, 4276, 4277, 4278, 4279, 
4280, 4281, 4282, 4283, 4284, 4285, 4286, 4287, 
4288, 4289, 4290, 4291, 4292, 4293, 4294, 4295, 
4296, 4297, 4298, 4299, 4300, 4301, 4302, 3323, 
3324, 3325, 3326, 3327, 3328, 3329, 3330, 3331, 
3332, 3333, 3334, 3335, 3336, 3337, 3338, 3339, 
3340, 3341, 3342, 3343, 3344, 3345, 3346, 3347, 
3348, 3349, 3350, 3351, 3352, 3353, 3354, 3355, 
3356, 3357, 3358, 3359, 3360, 3361, 3362, 3363, 
3364, 
*nset, nset=b_pistone
3281, 3282, 3283, 3284, 3285, 3286, 3287, 
3288, 3289, 3290, 3291, 3292, 3293, 3294, 3295, 
3296, 3297, 3298, 3299, 3300, 3301, 3302, 3303, 
3304, 3305, 3306, 3307, 3308, 3309, 3310, 3311, 
3312, 3313, 3314, 3315, 3316, 3317, 3318, 3319, 
3320, 3321, 3322, 3488, 3489, 3490, 3491, 3492, 
3493, 3494, 3495, 3496, 3497, 3498, 3499, 3500, 
3501, 3502, 3503, 3504, 3505, 3506, 3507, 3508, 
3509, 3510, 3511, 3512, 3513, 3514, 3515, 3516, 
3517, 3518, 3519, 3520, 3521, 3522, 3523, 3524, 
3525, 3526, 3527, 3528, 3529, 3530, 3531, 3532, 
3533, 3534, 3535, 3536, 3537, 3538, 3539, 3540, 
3541, 3542, 3543, 3544, 3545, 3546, 3547, 3548, 
3549, 3550, 3551, 3552, 3553, 3554, 3555, 3556, 
3557, 3558, 3559, 3560, 3561, 
*nset, nset=memb2
3023, 3024, 3025, 3026, 3027, 3028, 3029, 
3030, 3031, 3032, 3033, 3034, 3035, 3036, 3037, 
3038, 3039, 3040, 3041, 3042, 3043, 3044, 3045, 
3046, 3047, 3048, 3049, 3050, 3051, 3052, 3053, 
3054, 3055, 3056, 3057, 3058, 3059, 3060, 3061, 
3062, 3063, 3064, 3065, 3066, 3067, 3068, 3069, 
3070, 3071, 3072, 4097, 4098, 4099, 4100, 4101, 
4102, 4103, 4104, 4105, 4106, 4107, 4108, 4109, 
4110, 4111, 4112, 4113, 4114, 4115, 4116, 4117, 
4118, 4119, 4120, 4121, 4122, 4123, 4124, 4125, 
4126, 4127, 4128, 4129, 4130, 4131, 4132, 4133, 
4134, 4135, 4136, 4137, 4138, 4139, 4140, 4141, 
4142, 4143, 4144, 4145, 4146, 4147, 4148, 4149, 
4150, 4151, 4152, 4153, 4154, 4155, 4156, 4157, 
4158, 4159, 4160, 4161, 4162, 4163, 4164, 4165, 
4166, 4167, 4168, 4169, 4170, 4171, 4172, 4173, 
4174, 4175, 4176, 4177, 4178, 4179, 4180, 4181, 
4182, 4183, 4184, 4185, 4186, 4187, 4188, 4189, 
4190, 4191, 4192, 4193, 4194, 4195, 4196, 4197, 
4198, 4199, 4200, 4201, 4202, 4203, 4204, 4205, 
** ... 366 like lines cut
**solid section, material=steel, elset=C3D10
*element, elset=C3D10,type=C3D10
1155, 1955, 1153, 592, 595, 1957, 1189, 1956, 1958, 1163, 598, 
1156, 1959, 1812, 1315, 1960, 1962, 1875, 1961, 1963, 1965, 1964, 
1157, 1518, 1514, 1966, 1849, 1522, 1968, 1967, 1853, 1931, 1969, 
1158, 1311, 554, 241, 243, 1971, 555, 1970, 1972, 558, 244, 
1159, 1973, 1974, 1103, 1596, 1977, 1976, 1975, 1978, 1979, 1861, 
1160, 481, 1973, 1596, 1974, 1981, 1978, 1980, 1982, 1977, 1979, 
1161, 1434, 1430, 1016, 1213, 1437, 1984, 1983, 1730, 1729, 1985, 
1162, 1366, 644, 777, 78, 1987, 892, 1986, 1988, 646, 778, 
1163, 1046, 1104, 623, 1959, 1990, 1989, 1048, 1991, 1993, 1992, 
1164, 1219, 322, 1562, 1222, 1220, 1564, 1994, 1246, 1224, 1995, 
1165, 1562, 322, 1219, 320, 1564, 1220, 1994, 1563, 323, 1221, 
1166, 1996, 682, 1960, 831, 1999, 1998, 1997, 2000, 834, 2001, 
1167, 1273, 694, 2002, 1269, 2005, 2004, 2003, 1277, 2007, 2006, 
1168, 748, 174, 176, 222, 2009, 177, 2008, 750, 449, 448, 
1169, 748, 1803, 1506, 589, 2011, 1804, 2010, 806, 2013, 2012, 
1170, 1604, 333, 326, 1547, 2014, 334, 1605, 1606, 2015, 1548, 
1171, 1498, 1494, 216, 586, 1501, 2017, 2016, 2018, 2019, 588, 
1172, 1043, 748, 1803, 1510, 1045, 2011, 2020, 2021, 2022, 1805, 
1173, 748, 176, 224, 222, 2008, 451, 749, 750, 448, 225, 
1174, 565, 1442, 1735, 909, 2024, 1737, 2023, 911, 2026, 2025, 
** ... 2994 like lines cut

*elset, elset=memb1
1155, 1156, 1157, 1158, 1159, 1160, 1161, 
1162, 1163, 1164, 1165, 1166, 1167, 1168, 1169, 
1170, 1171, 1172, 1173, 1174, 1175, 1176, 1177, 
1178, 1179, 1180, 1181, 1182, 1183, 1184, 1185, 
1186, 1187, 1188, 1189, 1190, 1191, 1192, 1193, 
1194, 1195, 1196, 1197, 1198, 1199, 1200, 1201, 
1202, 1203, 1204, 1205, 1206, 1207, 1208, 1209, 
1210, 1211, 1212, 1213, 1214, 1215, 1216, 1217, 
1218, 1219, 1220, 1221, 1222, 1223, 1224, 1225, 
1226, 1227, 1228, 1229, 1230, 1231, 1232, 1233, 
1234, 1235, 1236, 1237, 1238, 1239, 1240, 1241, 
1242, 1243, 1244, 1245, 1246, 1247, 1248, 1249, 
1250, 1251, 1252, 1253, 1254, 1255, 1256, 1257, 
1258, 1259, 1260, 1261, 1262, 1263, 1264, 1265, 
1266, 1267, 1268, 1269, 1270, 1271, 1272, 1273, 
1274, 1275, 1276, 1277, 1278, 1279, 1280, 1281, 
1282, 1283, 1284, 1285, 1286, 1287, 1288, 1289, 
1290, 1291, 1292, 1293, 1294, 1295, 1296, 1297, 
1298, 1299, 1300, 1301, 1302, 1303, 1304, 1305, 
1306, 1307, 1308, 1309, 1310, 1311, 1312, 1313, 
** ... 165 like lines cut
*elset, elset=memb2
3770, 3771, 3772, 3773, 3774, 3775, 3776, 
3777, 3778, 3779, 3780, 3781, 3782, 3783, 3784, 
3785, 3786, 3787, 3788, 3789, 3790, 3791, 3792, 
3793, 3794, 3795, 3796, 3797, 3798, 3799, 3800, 
3801, 3802, 3803, 3804, 3805, 3806, 3807, 3808, 
3809, 3810, 3811, 3812, 3813, 3814, 3815, 3816, 
3817, 3818, 3819, 3820, 3821, 3822, 3823, 3824, 
3825, 3826, 3827, 3828, 3829, 3830, 3831, 3832, 
3833, 3834, 3835, 3836, 3837, 3838, 3839, 3840, 
3841, 3842, 3843, 3844, 3845, 3846, 3847, 3848, 
3849, 3850, 3851, 3852, 3853, 3854, 3855, 3856, 
3857, 3858, 3859, 3860, 3861, 3862, 3863, 3864, 
3865, 3866, 3867, 3868, 3869, 3870, 3871, 3872, 
3873, 3874, 3875, 3876, 3877, 3878, 3879, 3880, 
3881, 3882, 3883, 3884, 3885, 3886, 3887, 3888, 
3889, 3890, 3891, 3892, 3893, 3894, 3895, 3896, 
3897, 3898, 3899, 3900, 3901, 3902, 3903, 3904, 
3905, 3906, 3907, 3908, 3909, 3910, 3911, 3912, 
3913, 3914, 3915, 3916, 3917, 3918, 3919, 3920, 
3921, 3922, 3923, 3924, 3925, 3926, 3927, 3928, 
** ... 173 like lines cut
*elset, elset=m_spinaF1
2036, 1711, 1648, 2095, 2337, 2525, 
*elset, elset=m_spinaF2
1530, 2059, 1212, 1925, 2214, 1904, 1511, 
1692, 1794, 2197, 2213, 2119, 1774, 1214, 1884, 
1447, 2454, 1458, 1177, 
*elset, elset=m_spinaF3
1577, 1994, 1789, 1918, 2480, 1226, 1625, 
1988, 1740, 2270, 1788, 2526, 1845, 
*elset, elset=m_spinaF4
1556, 2511, 1694, 1955, 1336, 1480, 1946, 
2560, 2237, 1240, 1731, 1795, 
*elset, elset=m_fulcroF1
1482, 1263, 1717, 1664, 2577, 2050, 2332, 
2477, 2532, 1439, 2027, 1952, 2618, 1719, 
*elset, elset=m_fulcroF2
2456, 1669, 1331, 1613, 1284, 1164, 2565, 
1652, 1229, 2466, 2243, 2388, 1784, 2158, 2014, 
*elset, elset=m_fulcroF3
1165, 2484, 1875, 2450, 2486, 2263, 2401, 
2142, 1954, 1562, 1958, 2372, 
*elset, elset=m_fulcroF4
2029, 2247, 2047, 1257, 2291, 1523, 2619, 
1767, 1911, 
*elset, elset=b_spinaF1
3900, 4149, 5075, 5257, 4067, 4033, 3860, 
3785, 5055, 4792, 4620, 
*elset, elset=b_spinaF2
4643, 4158, 4359, 4435, 4647, 4636, 4285, 
4161, 3779, 4440, 4420, 
*elset, elset=b_spinaF3
4638, 5020, 4459, 4726, 5259, 3771, 4308, 
4755, 4264, 4683, 5008, 3880, 
*elset, elset=b_spinaF4
4228, 4908, 4127, 4915, 5034, 4316, 4430, 
3817, 5260, 5278, 4293, 3873, 4516, 4992, 3931, 
3773, 4263, 4413, 
*elset, elset=b_pistoneF1
4362, 4737, 4452, 4020, 4126, 5174, 4574, 
4765, 3887, 
*elset, elset=b_pistoneF2
4255, 3818, 4477, 4188, 4646, 4395, 4169, 
5171, 4822, 4998, 3772, 
*elset, elset=b_pistoneF3
4192, 4468, 4143, 4092, 4512, 4945, 4738, 
4409, 4110, 4407, 5197, 4424, 5172, 4824, 4109, 
*elset, elset=b_pistoneF4
4190, 4919, 4573, 4434, 3841, 4191, 5019, 
4128, 3976, 4489, 5198, 5169, 4367, 4456, 3884, 
*surface, type=element, name=sm_spina
m_spinaF1, S1
m_spinaF2, S2
m_spinaF3, S3
m_spinaF4, S4
*surface, type=element, name=sm_fulcro
m_fulcroF1, S1
m_fulcroF2, S2
m_fulcroF3, S3
m_fulcroF4, S4
*surface, type=element, name=sb_spina
b_spinaF1, S1
b_spinaF2, S2
b_spinaF3, S3
b_spinaF4, S4
*surface, type=element, name=sb_pistone
b_pistoneF1, S1
b_pistoneF2, S2
b_pistoneF3, S3
b_pistoneF4, S4


** **************************************************************
** ************ Unico step **************
*DISTRIBUTING COUPLING,ELSET=E1
m_fulcro,1.
*ELSET,ELSET=E1
1000000
*ELEMENT,TYPE=DCOUP3D
1000000,200000



*DISTRIBUTING COUPLING,ELSET=E2
m_spina,1.
*ELSET,ELSET=E2
1000001
*ELEMENT,TYPE=DCOUP3D
1000001,200001

*DISTRIBUTING COUPLING,ELSET=E3
b_spina,1.
*ELSET,ELSET=E3
1000002
*ELEMENT,TYPE=DCOUP3D
1000002,200002

*DISTRIBUTING COUPLING,ELSET=E4
b_pistone,1.
*ELSET,ELSET=E4
1000003
*ELEMENT,TYPE=DCOUP3D
1000003,200003


*EQUATION
2
200001,1,1,200002,1,-1
*EQUATION
2
200001,2,1,200002,2,-1
*EQUATION
2
200001,3,1,200002,3,-1

*Material, name=Acciaio
*Elastic
207000., 0.3
*density
7.8e-9

*SOLID SECTION, ELSET=C3D10, MATERIAL=Acciaio
*SOLID SECTION, ELSET=E1, MATERIAL=Acciaio
*SOLID SECTION, ELSET=E2, MATERIAL=Acciaio
*SOLID SECTION, ELSET=E3, MATERIAL=Acciaio
*SOLID SECTION, ELSET=E4, MATERIAL=Acciaio

*RIGID BODY, ELSET=memb1
**,REFNODE=136,ROT NODE=144
*RIGID BODY, ELSET=memb2
**,REFNODE=3881,ROT NODE=3889

**DEFINIZIONE DEL TIPO Di STEP

*Step,NLGEOM,INC=100
*DYNAMIC
0.05,3.,1e-010,1.

** BOUNDARY CONDITIONS

*BOUNDARY 
200000, 1,1
200000, 2,2
200000, 3,3
200000, 4,4
200000, 6,6

200003, 1,1
200003, 2,2
200003, 4,4
200003, 6,6






*amplitude, name=A1
0.,0.,1.0,1.0,2.0,0.5,3.0,0.2

*BOUNDARY,amplitude=A1
**200003,3,-10

** CARICHI
*Cload,amplitude=A1
200003,3,-100

*Cload
200000,5,100

** OUTPUT
*NODE PRINT, NSET=carico
U
** *EL PRINT, ELSET=C3D10
** S,E
*NODE FILE, NSET=nall
U,V,A
*EL FILE, ELSET=C3D10
S,E

*END STEP
** ***************************************************************