*NODE
1,0,0,0
2,1,0,0
3,1,0.1,0
4,0,0.1,0
*ELEMENT,TYPE=CAX3
1,1,3,4
2,1,2,3
*MATERIAL,NAME=Material
*ELASTIC,TYPE=ISOTROPIC
210000000000,0.3
*NSET,NSET=displacement_nodes
1
2
*ELSET,ELSET=Default
1
2
*SOLID SECTION,ELSET=Default,MATERIAL=Material
*BOUNDARY
1,2,,0
2,2,,0
*STEP
*STATIC
*DLOAD
1,P2,5
*NODE FILE,GLOBAL=YES,OUTPUT=2D
U,RF
*EL FILE
S
*END STEP
