*NODE
1,0.0207,-0.02812,-0.0021
2,0.02209,-0.02622,0.00244
3,0.017763,-0.03052,0.00244
*ELEMENT,TYPE=S3
1,2,3,1
*ELSET,ELSET=Default
1
*MATERIAL,NAME=Material
*ELASTIC,TYPE=ISOTROPIC
210000000000,0.3
*SHELL SECTION,ELSET=Default,MATERIAL=Material
0.00125
*BOUNDARY
2,1,,0
2,2,,0
2,3,,0
2,4,,0
2,5,,0
2,6,,0
3,1,,0
3,2,,0
3,3,,0
3,4,,0
3,5,,0
3,6,,0
*STEP
*STATIC
*DLOAD
1,P,-10000
*NODE FILE,GLOBAL=YES
U
*END STEP
