**
** ABAQUS Input Deck Generated by HyperMesh Version  : 13.0.110.31
** Generated using HyperMesh-Abaqus Template Version : 13.0.110
**
**   Template:  ABAQUS/STANDARD 3D
**
*NODE
         1,  25.0           ,  -25.0          ,  2.842170943E-14
         2,  25.0           ,  -15.0          ,  0.0            
         3,  25.0           ,  -5.0           ,  0.0            
         4,  25.0           ,  5.0            ,  0.0            
         5,  25.0           ,  15.0           ,  0.0            
         6,  25.0           ,  25.0           ,  0.0            
         7,  25.0           ,  25.0           ,  10.0           
         8,  25.0           ,  25.0           ,  20.0           
         9,  25.0           ,  25.0           ,  30.0           
        10,  25.0           ,  25.0           ,  40.0           
        11,  25.0           ,  25.0           ,  50.0           
        12,  25.0           ,  25.0           ,  60.0           
        13,  25.0           ,  25.0           ,  70.0           
        14,  25.0           ,  25.0           ,  80.0           
        15,  25.0           ,  25.0           ,  90.0           
        16,  25.0           ,  25.0           ,  100.0          
        17,  25.0           ,  25.0           ,  110.0          
        18,  25.0           ,  25.0           ,  120.0          
        19,  25.0           ,  25.0           ,  130.0          
        20,  25.0           ,  25.0           ,  140.0          
** ... 736 like lines cut
**HWCOLOR COMP          1    10
*ELEMENT,TYPE=C3D8R,ELSET=balken
       101,        66,        65,         8,         7,       127,       130,       129,
       128
       102,       127,       130,       129,       128,       131,       134,       133,
       132
       103,       131,       134,       133,       132,       135,       138,       137,
       136
       104,       135,       138,       137,       136,       139,       142,       141,
       140
       105,       139,       142,       141,       140,       143,       146,       145,
       144
       106,        97,        96,        99,       101,       147,       150,       149,
       148
       107,       147,       150,       149,       148,       151,       154,       153,
       152
       108,       151,       154,       153,       152,       155,       158,       157,
       156
       109,       155,       158,       157,       156,       159,       162,       161,
       160
       110,       159,       162,       161,       160,       163,       166,       165,
       164
** ... 980 like lines cut
*ELSET, ELSET=HMprop_stahl
       101,       102,       103,       104,       105,       106,       107,       108,
       109,       110,       111,       112,       113,       114,       115,       116,
       117,       118,       119,       120,       121,       122,       123,       124,
       125,       126,       127,       128,       129,       130,       131,       132,
       133,       134,       135,       136,       137,       138,       139,       140,
       141,       142,       143,       144,       145,       146,       147,       148,
       149,       150,       151,       152,       153,       154,       155,       156,
       157,       158,       159,       160,       161,       162,       163,       164,
       165,       166,       167,       168,       169,       170,       171,       172,
       173,       174,       175,       176,       177,       178,       179,       180,
       181,       182,       183,       184,       185,       186,       187,       188,
       189,       190,       191,       192,       193,       194,       195,       196,
       197,       198,       199,       200,       201,       202,       203,       204,
       205,       206,       207,       208,       209,       210,       211,       212,
       213,       214,       215,       216,       217,       218,       219,       220,
       221,       222,       223,       224,       225,       226,       227,       228,
       229,       230,       231,       232,       233,       234,       235,       236,
       237,       238,       239,       240,       241,       242,       243,       244,
       245,       246,       247,       248,       249,       250,       251,       252,
       253,       254,       255,       256,       257,       258,       259,       260,
** ... 43 like lines cut
**HM_set_by_property    11          1
*SOLID SECTION, ELSET=HMprop_stahl, MATERIAL=stahl
**HMNAME MATS          1 stahl    11
*MATERIAL, NAME=stahl
*DENSITY
7.8000E-09,0.0       
*ELASTIC, TYPE = ISOTROPIC
210000.0  ,0.3       ,0.0       
**HMNAME LOADSTEP          1 step
*STEP, INC =          100
*STATIC
**HWNAME LOADCOL          1 bound
**HWCOLOR LOADCOL          1    11
*BOUNDARY
        26,1,6,0.0
        27,1,6,0.0
        28,1,6,0.0
        29,1,6,0.0
        30,1,6,0.0
        31,1,6,0.0
       219,1,6,0.0
       220,1,6,0.0
       223,1,6,0.0
       224,1,6,0.0
       227,1,6,0.0
       228,1,6,0.0
       231,1,6,0.0
       232,1,6,0.0
       235,1,6,0.0
       236,1,6,0.0
       593,1,6,0.0
       594,1,6,0.0
       596,1,6,0.0
       597,1,6,0.0
** ... 16 like lines cut
**HWNAME LOADCOL          2 load
**HWCOLOR LOADCOL          2    11
*CLOAD
         1,2,100.0          
         2,2,100.0          
         3,2,100.0          
         4,2,100.0          
         5,2,100.0          
         6,2,100.0          
       697,2,100.0          
       698,2,100.0          
       699,2,100.0          
       700,2,100.0          
       701,2,100.0          
       702,2,100.0          
       703,2,100.0          
       704,2,100.0          
       705,2,100.0          
       706,2,100.0          
       722,2,100.0          
       723,2,100.0          
       724,2,100.0          
       725,2,100.0          
** ... 16 like lines cut
*NODE PRINT
*EL PRINT
*OUTPUT, FIELD
*NODE OUTPUT, VARIABLE = PRESELECT
U,
*ELEMENT OUTPUT
S,
E,
*NODE PRINT
U,WARP,UR3,UR1,U3,U1,U2,UR2,
*EL PRINT, POSITION = NODES
S11,S22,S33,S12,S13,S23,
E,
*NODE FILE
U,U1,U2,U3,UR1,UR2,UR3,WARP,
*EL FILE
S,
SP,
SINV,
ALPHA,
ALPHAP,
TSHR,
E,
*END STEP
*****
