*SURFACE, NAME = 1plate_contact_surface, TYPE = ELEMENT
1plate, SPOS
*SURFACE, NAME = 2ball_contact_surface, TYPE = ELEMENT
2ball, SPOS
*SURFACE INTERACTION, NAME = 1surface_interaction   
*SURFACE BEHAVIOR,PRESSURE-OVERCLOSURE=EXPONENTIAL
1.e-4,.1
*FRICTION
0.1       ,5000.0       ,0.0       ,0.0    
*CONTACT PAIR, INTERACTION=1surface_interaction, SMALL SLIDING
1plate_contact_surface, 2ball_contact_surface
*MATERIAL, NAME=steel
*DENSITY
7.8500E-09,0.0       
*ELASTIC, TYPE = ISOTROPIC
210000.0  ,0.3       ,0.0         
*SHELL SECTION, ELSET=1plate, MATERIAL=steel
1.0       ,
*SHELL SECTION, ELSET=2ball, MATERIAL=steel
1.0       ,
*INITIAL CONDITIONS,TYPE=VELOCITY
nodes_ball,3,-5420.0   
*STEP ,INC=40000
*DYNAMIC,DIRECT,EXPLICIT
1.e-4,       1.e-2,          ,
*BOUNDARY
nodes_fixed,1,3,0.0
*NODE FILE
U
*EL FILE
S
*END STEP
*NODE
         1,  0.2678977312914,  -16.48289842535,  11.675588743547
         2,  -13.79491444965,  -14.38313531038,  21.319002091012
         3,  -4.549766818298,  -4.660164196663,  4.0901482935679
         4,  25.0           ,  -25.0          ,  0.0            
         5,  -17.06173703418,  -10.26589906017,  21.126915414951
         6,  -4.201652094441,  -16.10015375755,  11.903551529404
         7,  -8.282893112913,  -8.481340944218,  6.8922212124702
         8,  -15.96594314805,  -4.721819649481,  11.918796157862
         9,  -25.0          ,  -25.0          ,  0.0            
        10,  -16.25654097239,  -9.803591653524,  16.705997592624
        11,  0.1597096592041,  -13.20929543551,  7.9837086162303
        12,  0.0            ,  -25.0          ,  0.0            
        13,  -4.550687532458,  -18.24211163179,  16.179691634894
        14,  -8.413304504821,  -14.87861677061,  12.615248182915
        15,  0.0            ,  13.262453164816,  37.970214963422
        16,  -10.85062576737,  -11.10025993903,  10.388570670123
        17,  25.0           ,  25.0           ,  0.0            
        18,  0.0            ,  9.2944634408754,  40.709120513064
        19,  0.0            ,  19.854177481961,  25.410733605106
        20,  0.0            ,  4.7863132857512,  3.581163651479 
** ... 247 like lines cut
**HWCOLOR COMP          1     3
*ELEMENT,TYPE=S4,ELSET=1plate
         1,         4,        28,        30,        12
         2,        63,        61,        28,         4
         3,        35,         4,        12,        37
         4,        65,        63,         4,        35
         5,         9,        32,        45,        43
         6,        12,        30,        32,         9
         7,        39,         9,        43,        41
         8,        37,        12,         9,        39
         9,        17,        55,        53,        25
        10,        59,        57,        55,        17
        11,        28,        17,        25,        30
        12,        61,        59,        17,        28
        13,        22,        51,        49,        47
        14,        25,        53,        51,        22
        15,        32,        22,        47,        45
        16,        30,        25,        22,        32
**HWCOLOR COMP          2     4
*ELEMENT,TYPE=S4,ELSET=2ball
        17,        16,        24,        54,        38
        18,        16,        40,        14,        24
        19,        16,        38,         7,        40
        20,        24,        42,        10,        54
        21,        24,        14,        31,        42
        22,        38,        54,         8,        44
        23,        40,        33,         6,        14
        24,        38,        44,        34,         7
        25,        40,         7,        64,        33
        26,        54,        10,        36,         8
        27,        14,         6,        13,        31
        28,        42,         2,         5,        10
        29,        42,        31,        27,         2
        30,         7,        34,         3,        64
        31,        44,         8,        29,        62
        32,        33,        11,         1,         6
        33,        44,        62,        66,        34
        34,        10,         5,        68,        36
        35,        33,        64,        67,        11
        36,        31,        13,        70,        27
** ... 220 like lines cut
*NSET, NSET=nodes_fixed
        41,        49,        57,        65
*NSET, NSET=nodes_ball
         1,         2,         3,         5,         6,         7,         8,        10,
        11,        13,        14,        15,        16,        18,        19,        20,
        21,        23,        24,        26,        27,        29,        31,        33,
        34,        36,        38,        40,        42,        44,        46,        48,
        50,        52,        54,        56,        58,        60,        62,        64,
        66,        67,        68,        69,        70,        71,        72,        73,
        74,        75,        76,        77,        78,        79,        80,        81,
        82,        83,        84,        85,        86,        87,        88,        89,
        90,        91,        92,        93,        94,        95,        96,        97,
        98,        99,       100,       101,       102,       103,       104,       105,
       106,       107,       108,       109,       110,       111,       112,       113,
       114,       115,       116,       117,       118,       119,       120,       121,
       122,       123,       124,       125,       126,       127,       128,       129,
       130,       131,       132,       133,       134,       135,       136,       137,
       138,       139,       140,       141,       142,       143,       144,       145,
       146,       147,       148,       149,       150,       151,       152,       153,
       154,       155,       156,       157,       158,       159,       160,       161,
       162,       163,       164,       165,       166,       167,       168,       169,
       170,       171,       172,       173,       174,       175,       176,       177,
       178,       179,       180,       181,       182,       183,       184,       185,
** ... 11 like lines cut