*HEADING
Model: beam_3D-coupling

*NODE, NSET=Nall
       1,6.000000000000e+001,0.000000000000e+000,0.000000000000e+000
       2,5.000000000000e+001,0.000000000000e+000,0.000000000000e+000
       3,5.000000000000e+001,0.000000000000e+000,1.000000000000e+001
       4,6.000000000000e+001,0.000000000000e+000,1.000000000000e+001
       5,6.000000000000e+001,1.000000000000e+001,0.000000000000e+000
       6,5.000000000000e+001,1.000000000000e+001,0.000000000000e+000
       7,5.000000000000e+001,1.000000000000e+001,1.000000000000e+001
       8,6.000000000000e+001,1.000000000000e+001,1.000000000000e+001
       9,5.000000000000e+001,0.000000000000e+000,2.000000000000e+001
      10,6.000000000000e+001,0.000000000000e+000,2.000000000000e+001
      11,5.000000000000e+001,1.000000000000e+001,2.000000000000e+001
      12,6.000000000000e+001,1.000000000000e+001,2.000000000000e+001
      13,5.000000000000e+001,0.000000000000e+000,3.000000000000e+001
      14,6.000000000000e+001,0.000000000000e+000,3.000000000000e+001
      15,5.000000000000e+001,1.000000000000e+001,3.000000000000e+001
      16,6.000000000000e+001,1.000000000000e+001,3.000000000000e+001
      17,5.000000000000e+001,0.000000000000e+000,4.000000000000e+001
      18,6.000000000000e+001,0.000000000000e+000,4.000000000000e+001
      19,5.000000000000e+001,1.000000000000e+001,4.000000000000e+001
      20,6.000000000000e+001,1.000000000000e+001,4.000000000000e+001
** ... 850 like lines cut
*ELEMENT, TYPE=C3D8, ELSET=Eall
     1,     1,     2,     3,     4,     5,     6,     7,     8
     2,     4,     3,     9,    10,     8,     7,    11,    12
     3,    10,     9,    13,    14,    12,    11,    15,    16
     4,    14,    13,    17,    18,    16,    15,    19,    20
     5,    18,    17,    21,    22,    20,    19,    23,    24
     6,    22,    21,    25,    26,    24,    23,    27,    28
     7,    26,    25,    29,    30,    28,    27,    31,    32
     8,    30,    29,    33,    34,    32,    31,    35,    36
     9,    34,    33,    37,    38,    36,    35,    39,    40
    10,    38,    37,    41,    42,    40,    39,    43,    44
    11,    42,    41,    45,    46,    44,    43,    47,    48
    12,    46,    45,    49,    50,    48,    47,    51,    52
    13,    50,    49,    53,    54,    52,    51,    55,    56
    14,    54,    53,    57,    58,    56,    55,    59,    60
    15,    58,    57,    61,    62,    60,    59,    63,    64
    16,    62,    61,    65,    66,    64,    63,    67,    68
    17,    66,    65,    69,    70,    68,    67,    71,    72
    18,    70,    69,    73,    74,    72,    71,    75,    76
    19,    74,    73,    77,    78,    76,    75,    79,    80
    20,    78,    77,    81,    82,    80,    79,    83,    84
** ... 340 like lines cut

** Names based on fix_01
*NSET,NSET=Nfix_01 
1, 
2, 
5, 
6, 
125, 
127, 
187, 
189, 
249, 
251, 
311, 
313, 
373, 
375, 

** Names based on fix_02
*NSET,NSET=Nfix_02 
555, 
556, 
557, 
558, 
619, 
620, 
681, 
682, 
743, 
744, 
805, 
806, 
867, 
868, 

** Surfaces based on sbound_01
*SURFACE, NAME=Ssbound_01
30, S5
60, S5
90, S5
120, S5
150, S5
180, S5

** Surfaces based on sbound_02
*SURFACE, NAME=Ssbound_02
181, S3
211, S3
241, S3
271, S3
301, S3
331, S3

** Names based on refnode
*NSET,NSET=Nrefnode 
869, 

*COUPLING,REF NODE=869,SURFACE=Ssbound_01,CONSTRAINT NAME=CN1
*DISTRIBUTING
1,1
2,2
3,3
4,4
5,5
6,6

*COUPLING,REF NODE=869,SURFACE=Ssbound_02,CONSTRAINT NAME=CN2
*DISTRIBUTING
1,1
2,2
3,3
4,4
5,5
6,6

*MATERIAL, Name=steel

*ELASTIC
210000, 0.3

*DENSITY
7.86E-9

*SOLID SECTION,ELSET=Eall,MATERIAL=Steel

*STEP

*STATIC

*BOUNDARY
Nfix_01,1,3,0
Nfix_02,1,3,0

**Nrefnode,4,4,0.005

*DLOAD
Eall,GRAV,9810,1,0,0

*NODE FILE
U

*EL FILE
S

*END STEP
