** Generated by Mecway 11.0
*NODE
1,0,0,0
2,0.1,0,0
3,0.1,0.1,0
4,0,0.1,0
5,0,0,0.1
6,0.1,0,0.1
7,0.1,0.1,0.1
8,0,0.1,0.1
9,0,0,0.02
10,0,0,0.04
11,0,0,0.06
12,0,0,0.08
13,0,0.02,0
14,0,0.02,0.02
15,0,0.02,0.04
16,0,0.02,0.06
17,0,0.02,0.08
18,0,0.02,0.1
19,0,0.04,0
20,0,0.04,0.02
** ... 1816 like lines cut
*ELEMENT,TYPE=C3D8
1,177,211,216,183,178,212,7,184
2,1,41,47,13,9,42,48,14
3,9,42,48,14,10,43,49,15
4,10,43,49,15,11,44,50,16
5,11,44,50,16,12,45,51,17
6,12,45,51,17,5,46,52,18
7,13,47,53,19,14,48,54,20
8,14,48,54,20,15,49,55,21
9,15,49,55,21,16,50,56,22
10,16,50,56,22,17,51,57,23
11,17,51,57,23,18,52,58,24
12,19,53,59,25,20,54,60,26
13,20,54,60,26,21,55,61,27
14,21,55,61,27,22,56,62,28
15,22,56,62,28,23,57,63,29
16,23,57,63,29,24,58,64,30
17,25,59,65,31,26,60,66,32
18,26,60,66,32,27,61,67,33
19,27,61,67,33,28,62,68,34
20,28,62,68,34,29,63,69,35
** ... 1230 like lines cut
*NSET,NSET=fixed
1
4
5
8
9
10
11
12
13
14
15
16
17
18
19
20
21
22
23
24
** ... 16 like lines cut
*NSET,NSET=load
261
306
351
396
441
486
531
576
621
666
711
756
801
846
891
936
981
1026
1071
1116
** ... 16 like lines cut
*ELSET,ELSET=Default
1
2
3
4
5
6
7
8
9
10
11
12
13
14
15
16
17
18
19
20
** ... 1230 like lines cut
*MATERIAL,NAME=Material
*ELASTIC,TYPE=ISOTROPIC
200000000000,0.3
*SOLID SECTION,ELSET=Default,MATERIAL=Material
*BOUNDARY
1,1,,0
1,2,,0
1,3,,0
4,1,,0
4,2,,0
4,3,,0
5,1,,0
5,2,,0
5,3,,0
8,1,,0
8,2,,0
8,3,,0
9,1,,0
9,2,,0
9,3,,0
10,1,,0
10,2,,0
10,3,,0
11,1,,0
11,2,,0
** ... 88 like lines cut
*STEP
*STATIC
*CLOAD
261,2,-2.777777777778
306,2,-2.777777777778
351,2,-2.777777777778
396,2,-2.777777777778
441,2,-2.777777777778
486,2,-2.777777777778
531,2,-2.777777777778
576,2,-2.777777777778
621,2,-2.777777777778
666,2,-2.777777777778
711,2,-2.777777777778
756,2,-2.777777777778
801,2,-2.777777777778
846,2,-2.777777777778
891,2,-2.777777777778
936,2,-2.777777777778
981,2,-2.777777777778
1026,2,-2.777777777778
1071,2,-2.777777777778
1116,2,-2.777777777778
** ... 16 like lines cut
*NODE FILE,GLOBAL=YES
U,RF
*EL FILE
S,E,ENER
*END STEP
