**Datei: Flanschberechnung von "DATUM"

*NODE,NSET=NALL
1,14.815, 2.347, 0.100
2,14.266, 4.635, 0.200
3,13.365, 6.810, 0.300
4,12.135, 8.817, 0.400
5,10.607,10.607, 0.500
6, 8.817,12.135, 0.600
7, 6.810,13.365, 0.700
8, 4.635,14.266, 0.800
9, 2.347,14.815, 0.900
10,-0.000,15.000, 1.000
11,-2.347,14.815, 1.100
12,-4.635,14.266, 1.200
13,-6.810,13.365, 1.300
14,-8.817,12.135, 1.400
15,-10.607,10.607, 1.500
16,-12.135, 8.817, 1.600
17,-13.365, 6.810, 1.700
18,-14.266, 4.635, 1.800
19,-14.815, 2.347, 1.900
20,-15.000,-0.000, 2.000
** ... 279 like lines cut
*ELEMENT, TYPE=B31, ELSET=Feder
1,1,2
2,2,3
3,3,4
4,4,5
5,5,6
6,6,7
7,7,8
8,8,9
9,9,10
10,10,11
11,11,12
12,12,13
13,13,14
14,14,15
15,15,16
16,16,17
17,17,18
18,18,19
19,19,20
20,20,21
** ... 278 like lines cut



*NSET,NSET=NLoad
299,
298,
297,
296,
295
*NSET,NSET=NFix
1,
2,
3,
4,
5

**SOLID SECTION,ELSET=GAP_X,MATERIAL=EL
**GAP,ELSET=GAP_X
**4.0,0.,0.,1.
*MATERIAL,NAME=EL
*ELASTIC
206000.0,.268

*BEAM SECTION,ELSET=Feder,MATERIAL=EL,SECTION=RECT
4.00, 4.00

*BOUNDARY
NFix,1,3
NLoad,1,2

*STEP
*STATIC
*CLOAD
NLoad,3,100.0

*EL FILE
S
*NODE FILE
U
*END STEP
