**
** ABAQUS Input Deck Generated by HyperMesh Version  : 13.0.110.31
** Generated using HyperMesh-Abaqus Template Version : 13.0.110
**
**   Template:  ABAQUS/STANDARD 3D
**
*NODE
         1,  -25.0          ,  25.0           ,  0.0            
         2,  -3.55271368E-15,  25.0           ,  0.0            
         3,  25.0           ,  25.0           ,  0.0            
         4,  25.0           ,  -3.55271368E-15,  0.0            
         5,  25.0           ,  -25.0          ,  2.842170943E-14
         6,  -3.55271368E-15,  -25.0          ,  2.842170943E-14
         7,  -25.0          ,  -25.0          ,  0.0            
         8,  -25.0          ,  3.552713679E-15,  0.0            
         9,  -3.55271368E-15,  0.0            ,  0.0            
        10,  25.0           ,  -25.0          ,  25.0           
        11,  -3.55271368E-15,  -25.0          ,  25.0           
        12,  -3.99680289E-15,  -3.55271368E-15,  25.0           
        13,  25.0           ,  -1.59872116E-14,  25.0           
        14,  25.0           ,  -25.0          ,  50.0           
        15,  -3.55271368E-15,  -25.0          ,  50.0           
        16,  -4.88498131E-15,  -2.66453526E-15,  50.0           
        17,  25.0           ,  -1.24344979E-14,  50.0           
        18,  25.0           ,  -25.0          ,  75.0           
        19,  -3.55271368E-15,  -25.0          ,  75.0           
        20,  -4.44089210E-15,  1.554312234E-15,  75.0           
** ... 61 like lines cut
**HWCOLOR COMP          1    10
*ELEMENT,TYPE=C3D8R,ELSET=balken
         5,         5,         4,         9,         6,        10,        13,        12,
        11
         6,        10,        13,        12,        11,        14,        17,        16,
        15
         7,        14,        17,        16,        15,        18,        21,        20,
        19
         8,        18,        21,        20,        19,        22,        25,        24,
        23
         9,        22,        25,        24,        23,        26,        29,        28,
        27
        10,        26,        29,        28,        27,        30,        33,        32,
        31
        11,        30,        33,        32,        31,        34,        37,        36,
        35
        12,        34,        37,        36,        35,        38,        41,        40,
        39
        13,         4,         3,         2,         9,        13,        43,        42,
        12
        14,        13,        43,        42,        12,        17,        45,        44,
        16
** ... 44 like lines cut
**HM_PROP_ID          1
**HM_comp_by_property "property1"    11
*SOLID SECTION, ELSET=balken, MATERIAL=mat
**HMNAME MATS          1 mat    11
*MATERIAL, NAME=mat
*DENSITY
7.8000E-09,0.0       
*ELASTIC, TYPE = ISOTROPIC
210000.0  ,0.3       ,0.0       
*AMPLITUDE, NAME =amp, DEFINITION = TABULAR
0.0       ,0.0       
0.2       ,1.0       
**HMNAME CURVE          1 amp
**HMNAME LOADSTEP          1 step
*STEP
*DYNAMIC
1.0000E-03,0.2       ,          ,          
**HWNAME LOADCOL          1 bc
**HWCOLOR LOADCOL          1    11
*BOUNDARY
        38,1,3,0.0
        39,1,3,0.0
        40,1,3,0.0
        41,1,3,0.0
        56,1,3,0.0
        57,1,3,0.0
        72,1,3,0.0
        73,1,3,0.0
        81,1,3,0.0
**HWNAME LOADCOL          2 cload
**HWCOLOR LOADCOL          2    11
*CLOAD, AMPLITUDE = amp
         1,2,-10.0          
         2,2,-10.0          
         3,2,-10.0          
         4,2,-10.0          
         5,2,-10.0          
         6,2,-10.0          
         7,2,-10.0          
         8,2,-10.0          
         9,2,-10.0          

*NODE FILE
U,
*EL FILE
S,
E,
*END STEP
*****
