** ALP BLADE                                                                                                                                                                                            
** Job name: correct Model name: Model-1                                                                                                                                                                
** Generated by: Abaqus/CAE 6.12-2                                                                                                                                                                      
*MATERIAL, NAME=mat0                                                                                                                                                                                    
*ELASTIC, TYPE=ISOTROPIC                                                                                                                                                                                
400e9, 0.3                                                                                                                                                                                              
*DENSITY                                                                                                                                                                                                
2300                                                                                                                                                                                                    
*NODE                                                                                                                                                                                                   
    1, -0.43000002E-01, -0.20000001E-02, -0.16500000E+01
    2, -0.43000002E-01, -0.18000000E-02, -0.16500000E+01
    3, -0.43000002E-01, -0.13999999E-02, -0.16500000E+01
    4, -0.39999999E-01, -0.13500000E-02, -0.16500000E+01
    5, -0.43299999E-01, -0.13500000E-02, -0.16500000E+01
    6, -0.43299999E-01, -0.13000000E-02, -0.16500000E+01
    7, -0.43299999E-01, -0.11000000E-02, -0.16500000E+01
    8, -0.43499999E-01, -0.11000000E-02, -0.16500000E+01
    9, -0.55408958E-01, -0.55500465E-02, -0.28930649E+00
   10, -0.55408958E-01, -0.55500465E-02, -0.17125958E+00
   11, -0.31841420E-01, -0.54502892E-02, -0.28930649E+00
   12, -0.31841420E-01, -0.54502892E-02, -0.17716131E+00
   13, -0.44419672E-01, -0.61792848E-02, -0.28930345E+00
   14,  0.78751572E-01,  0.86416435E-02, -0.16185854E+00
   15,  0.78857593E-01,  0.86167874E-02, -0.28928572E+00
   16, -0.42608239E-01, -0.22890954E-02, -0.16500000E+01
   17, -0.39849017E-01, -0.27649214E-02, -0.16500005E+01
   18, -0.36362320E-01, -0.29768343E-02, -0.16499884E+01
   19, -0.29165119E-01, -0.29202970E-02, -0.16499500E+01
   20, -0.30880701E-01,  0.68848510E-02, -0.16499500E+01
** ... 6338 like lines cut
*ELEMENT,TYPE=S8R,ELSET=STRUCT                                                                                                                                                                          
  1, 2123,   22,  517,  163, 2131, 2132, 2133, 2134                                                                                                                                                     
  2,   22,   23,  518,  517, 2135, 2136, 2137, 2132                                                                                                                                                     
  3,   23,   24,  519,  518, 2138, 2139, 2140, 2136                                                                                                                                                     
  4,   24,   25,  520,  519, 2141, 2142, 2143, 2139                                                                                                                                                     
  5,   25, 2124,   26,  520, 2144, 2145, 2146, 2142                                                                                                                                                     
  6,  163,  517,  521,  162, 2133, 2147, 2148, 2149                                                                                                                                                     
  7,  517,  518,  522,  521, 2137, 2150, 2151, 2147                                                                                                                                                     
  8,  518,  519,  523,  522, 2140, 2152, 2153, 2150                                                                                                                                                     
  9,  519,  520,  524,  523, 2143, 2154, 2155, 2152                                                                                                                                                     
 10,  520,   26,   27,  524, 2146, 2156, 2157, 2154                                                                                                                                                     
 11,  162,  521,  525,  161, 2148, 2158, 2159, 2160                                                                                                                                                     
 12,  521,  522,  526,  525, 2151, 2161, 2162, 2158                                                                                                                                                     
 13,  522,  523,  527,  526, 2153, 2163, 2164, 2161                                                                                                                                                     
 14,  523,  524,  528,  527, 2155, 2165, 2166, 2163                                                                                                                                                     
 15,  524,   27,   28,  528, 2157, 2167, 2168, 2165                                                                                                                                                     
 16,  161,  525,  529,  160, 2159, 2169, 2170, 2171                                                                                                                                                     
 17,  525,  526,  530,  529, 2162, 2172, 2173, 2169                                                                                                                                                     
 18,  526,  527,  531,  530, 2164, 2174, 2175, 2172                                                                                                                                                     
 19,  527,  528,  532,  531, 2166, 2176, 2177, 2174                                                                                                                                                     
 20,  528,   28,   29,  532, 2168, 2178, 2179, 2176                                                                                                                                                     
** ... 2087 like lines cut
*NSET, NSET=SURF4-TIP                                                                                                                                                                                   
   16,   17,   18,   19,   20,   21,   22,   23,   24,   25,  233,  234,  235,  236,  237,  238                                                                                                         
  239,  307,  308,  510,  511,  512,  513,  514,  515,  516, 2101, 2102, 2103, 2104, 2105, 2106                                                                                                         
 2107, 2108, 2109, 2110, 2111, 2112, 2113, 2114, 2115, 2116, 2117, 2118, 2119, 2120, 2121, 2122                                                                                                         
 2123, 2124, 2131, 2135, 2138, 2141, 2144, 3243, 3246, 3249, 3252, 3255, 3258, 3261, 3264, 4465                                                                                                         
 4601, 4737, 4873, 5009, 5011, 5150, 5353, 5489, 5625, 5760, 6297, 6299, 6301, 6302, 6303, 6304                                                                                                         
 6305, 6306, 6307, 6308, 6309, 6310, 6311, 6312, 6313, 6314, 6315, 6316, 6317, 6318, 6319, 6320                                                                                                         
 6321, 6322, 6323, 6324, 6325, 6326, 6327, 6328, 6329, 6330, 6331, 6332, 6333, 6334, 6335, 6336                                                                                                         
 6337, 6338, 6339, 6340, 6341, 6342, 6343, 6344, 6345, 6346, 6347, 6348, 6349, 6350, 6351, 6352                                                                                                         
 6353, 6354, 6355, 6356, 6357, 6358                                                                                                                                                                     
*ELSET, ELSET=SURF4-TIP, GENERATE                                                                                                                                                                       
 2073,  2107,     1                                                                                                                                                                                     
*NSET, NSET=ROOT                                                                                                                                                                                        
   10,   12,   14,  174,  175,  176,  177,  188,  189,  190,  191,  192,  193,  194,  207,  208                                                                                                         
  209,  210,  214,  215,  216,  225,  226,  227,  228, 2127, 2128, 2129, 2887, 2904, 2916, 2928                                                                                                         
 2940, 2952, 2980, 2993, 3006, 3019, 3032, 3045, 3058, 3066, 3084, 3097, 3110, 3123, 3131, 3143                                                                                                         
 3156, 3169, 3182, 3184, 3187, 3190, 3193, 3196                                                                                                                                                         
*NSET, NSET=SURF2-DOWN                                                                                                                                                                                  
   11,   12,   14,   15,   19,   21,  202,  203,  204,  205,  206,  217,  218,  219,  220,  221                                                                                                         
  225,  226,  227,  228,  229,  230,  231,  232,  309,  310,  311,  312,  313,  314,  315,  316                                                                                                         
  317,  318,  319,  320,  321,  322,  323,  324,  325,  326,  327,  328,  329,  330,  331,  332                                                                                                         
  333,  334,  335,  336,  337,  338,  339,  340,  341,  342,  343,  344,  345,  346,  347,  348                                                                                                         
  349,  350,  351,  352,  353,  354,  355,  356,  357,  358,  359,  360,  361,  362,  363,  364                                                                                                         
  365,  366,  367,  368,  369,  370,  371,  372,  373,  374,  375,  443,  444,  445,  446,  447                                                                                                         
  448,  449,  450,  451,  452,  453,  454,  455,  456,  457,  458,  459,  460,  461,  462,  463                                                                                                         
  464,  465,  466,  467,  468,  469,  470,  471,  472,  473,  474,  475,  476,  477,  478,  479                                                                                                         
  480,  481,  482,  483,  484,  485,  486,  487,  488,  489,  490,  491,  492,  493,  494,  495                                                                                                         
  496,  497,  498,  499,  500,  501,  502,  503,  504,  505,  506,  507,  508,  509,  510,  511                                                                                                         
  512,  513,  875,  876,  877,  878,  879,  880,  881,  882,  883,  884,  885,  886,  887,  888                                                                                                         
  889,  890,  891,  892,  893,  894, 1632, 1633, 1634, 1635, 1636, 1637, 1638, 1639, 1640, 1641                                                                                                         
 1642, 1643, 1644, 1645, 1646, 1647, 1648, 1649, 1650, 1651, 1652, 1653, 1654, 1655, 1656, 1657                                                                                                         
 1658, 1659, 1660, 1661, 1662, 1663, 1664, 1665, 1666, 1667, 1668, 1669, 1670, 1671, 1672, 1673                                                                                                         
 1674, 1675, 1676, 1677, 1678, 1679, 1680, 1681, 1682, 1683, 1684, 1685, 1686, 1687, 1688, 1689                                                                                                         
 1690, 1691, 1692, 1693, 1694, 1695, 1696, 1697, 1698, 1699, 1700, 1701, 1702, 1703, 1704, 1705                                                                                                         
 1706, 1707, 1708, 1709, 1710, 1711, 1712, 1713, 1714, 1715, 1716, 1717, 1718, 1719, 1720, 1721                                                                                                         
 1722, 1723, 1724, 1725, 1726, 1727, 1728, 1729, 1730, 1731, 1732, 1733, 1734, 1735, 1736, 1737                                                                                                         
 1738, 1739, 1740, 1741, 1742, 1743, 1744, 1745, 1746, 1747, 1748, 1749, 1750, 1751, 1752, 1753                                                                                                         
 1754, 1755, 1756, 1757, 1758, 1759, 1760, 1761, 1762, 1763, 1764, 1765, 1766, 1767, 1768, 1769                                                                                                         
** ... 60 like lines cut
*ELSET, ELSET=SURF2-DOWN                                                                                                                                                                                
  479,  480,  481,  482,  483,  484,  485,  486,  487,  488,  489,  490,  491,  492,  493,  494                                                                                                         
  495,  496,  497,  498,  499,  500,  501,  502,  503,  504,  505,  506,  507,  508, 1461, 1462                                                                                                         
 1463, 1464, 1465, 1466, 1467, 1468, 1469, 1470, 1471, 1472, 1473, 1474, 1475, 1476, 1477, 1478                                                                                                         
 1479, 1480, 1481, 1482, 1483, 1484, 1485, 1486, 1487, 1488, 1489, 1490, 1491, 1492, 1493, 1494                                                                                                         
 1495, 1496, 1497, 1498, 1499, 1500, 1501, 1502, 1503, 1504, 1505, 1506, 1507, 1508, 1509, 1510                                                                                                         
 1511, 1512, 1513, 1514, 1515, 1516, 1517, 1518, 1519, 1520, 1521, 1522, 1523, 1524, 1525, 1526                                                                                                         
 1527, 1528, 1529, 1530, 1531, 1532, 1533, 1534, 1535, 1536, 1537, 1538, 1539, 1540, 1541, 1542                                                                                                         
 1543, 1544, 1545, 1546, 1547, 1548, 1549, 1550, 1551, 1552, 1553, 1554, 1555, 1556, 1557, 1558                                                                                                         
 1559, 1560, 1561, 1562, 1563, 1564, 1565, 1566, 1567, 1568, 1569, 1570, 1571, 1572, 1573, 1574                                                                                                         
 1575, 1576, 1577, 1578, 1579, 1580, 1581, 1582, 1583, 1584, 1585, 1586, 1587, 1588, 1589, 1590                                                                                                         
 1591, 1592, 1593, 1594, 1595, 1596, 1597, 1598, 1599, 1600, 1601, 1602, 1603, 1604, 1605, 1606                                                                                                         
 1607, 1608, 1609, 1610, 1611, 1612, 1613, 1614, 1615, 1616, 1617, 1618, 1619, 1620, 1621, 1622                                                                                                         
 1623, 1624, 1625, 1626, 1627, 1628, 1629, 1630, 1631, 1632, 1633, 1634, 1635, 1636, 1637, 1638                                                                                                         
 1639, 1640, 1641, 1642, 1643, 1644, 1645, 1646, 1647, 1648, 1649, 1650, 1651, 1652, 1653, 1654                                                                                                         
 1655, 1656, 1657, 1658, 1659, 1660, 1661, 1662, 1663, 1664, 1665, 1666, 1667, 1668, 1669, 1670                                                                                                         
 1671, 1672, 1673, 1674, 1675, 1676, 1677, 1678, 1679, 1680, 1681, 1682, 1683, 1684, 1685, 1686                                                                                                         
 1687, 1688, 1689, 1690, 1691, 1692, 1693, 1694, 1695, 1696, 1697, 1698, 1699, 1700, 1701, 1702                                                                                                         
 1703, 1704, 1705, 1706, 1707, 1708, 1709, 1710, 1711, 1712, 1713, 1714, 1715, 1716, 1717, 1718                                                                                                         
 1719, 1720, 1721, 1722, 1723, 1724, 1725, 1726, 1727, 1728, 1729, 1730, 1731, 1732, 1733, 1734                                                                                                         
 1735, 1736, 1737, 1738, 1739, 1740, 1741, 1742, 1743, 1744, 1745, 1746, 1747, 1748, 1749, 1750                                                                                                         
** ... 4 like lines cut
*NSET, NSET=SURF3-UP                                                                                                                                                                                    
   14,   15,   20,   21,  178,  179,  180,  181,  182,  214,  215,  216,  217,  218,  219,  220                                                                                                         
  221,  222,  223,  224,  376,  377,  378,  379,  380,  381,  382,  383,  384,  385,  386,  387                                                                                                         
  388,  389,  390,  391,  392,  393,  394,  395,  396,  397,  398,  399,  400,  401,  402,  403                                                                                                         
  404,  405,  406,  407,  408,  409,  410,  411,  412,  413,  414,  415,  416,  417,  418,  419                                                                                                         
  420,  421,  422,  423,  424,  425,  426,  427,  428,  429,  430,  431,  432,  433,  434,  435                                                                                                         
  436,  437,  438,  439,  440,  441,  442,  443,  444,  445,  446,  447,  448,  449,  450,  451                                                                                                         
  452,  453,  454,  455,  456,  457,  458,  459,  460,  461,  462,  463,  464,  465,  466,  467                                                                                                         
  468,  469,  470,  471,  472,  473,  474,  475,  476,  477,  478,  479,  480,  481,  482,  483                                                                                                         
  484,  485,  486,  487,  488,  489,  490,  491,  492,  493,  494,  495,  496,  497,  498,  499                                                                                                         
  500,  501,  502,  503,  504,  505,  506,  507,  508,  509,  514,  515,  516,  860,  861,  862                                                                                                         
  863,  864,  865,  866,  867,  868,  869,  870,  871,  872,  873,  874, 1900, 1901, 1902, 1903                                                                                                         
 1904, 1905, 1906, 1907, 1908, 1909, 1910, 1911, 1912, 1913, 1914, 1915, 1916, 1917, 1918, 1919                                                                                                         
 1920, 1921, 1922, 1923, 1924, 1925, 1926, 1927, 1928, 1929, 1930, 1931, 1932, 1933, 1934, 1935                                                                                                         
 1936, 1937, 1938, 1939, 1940, 1941, 1942, 1943, 1944, 1945, 1946, 1947, 1948, 1949, 1950, 1951                                                                                                         
 1952, 1953, 1954, 1955, 1956, 1957, 1958, 1959, 1960, 1961, 1962, 1963, 1964, 1965, 1966, 1967                                                                                                         
 1968, 1969, 1970, 1971, 1972, 1973, 1974, 1975, 1976, 1977, 1978, 1979, 1980, 1981, 1982, 1983                                                                                                         
 1984, 1985, 1986, 1987, 1988, 1989, 1990, 1991, 1992, 1993, 1994, 1995, 1996, 1997, 1998, 1999                                                                                                         
 2000, 2001, 2002, 2003, 2004, 2005, 2006, 2007, 2008, 2009, 2010, 2011, 2012, 2013, 2014, 2015                                                                                                         
 2016, 2017, 2018, 2019, 2020, 2021, 2022, 2023, 2024, 2025, 2026, 2027, 2028, 2029, 2030, 2031                                                                                                         
 2032, 2033, 2034, 2035, 2036, 2037, 2038, 2039, 2040, 2041, 2042, 2043, 2044, 2045, 2046, 2047                                                                                                         
** ... 46 like lines cut
*ELSET, ELSET=LEADING-EDGE                                                                                                                                                                              
    1,    2,    3,    4,    5,    6,    7,    8,    9,   10,   11,   12,   13,   14,   15,   16                                                                                                         
   17,   18,   19,   20,   21,   22,   23,   24,   25,   26,   27,   28,   29,   30,   31,   32                                                                                                         
   33,   34,   35,   36,   37,   38,   39,   40,   41,   42,   43,   44,   45,   46,   47,   48                                                                                                         
   49,   50,   51,   52,   53,   54,   55,   56,   57,   58,   59,   60,   61,   62,   63,   64                                                                                                         
   65,   66,   67,   68,   69,   70,   71,   72,   73,   74,   75,   76,   77,   78,   79,   80                                                                                                         
   81,   82,   83,   84,   85,   86,   87,   88,   89,   90,   91,   92,   93,   94,   95,   96                                                                                                         
   97,   98,   99,  100,  101,  102,  103,  104,  105,  106,  107,  108,  109,  110,  111,  112                                                                                                         
  113,  114,  115,  116,  117,  118,  119,  120,  121,  122,  123,  124,  125,  126,  127,  128                                                                                                         
  129,  130,  131,  132,  133,  134,  135,  136,  137,  138,  139,  140,  141,  142,  143,  144                                                                                                         
  145,  146,  147,  148,  149,  150,  151,  152,  153,  154,  155,  156,  157,  158,  159,  160                                                                                                         
  161,  162,  163,  164,  165,  166,  167,  168,  169,  170,  171,  172,  173,  174,  175,  176                                                                                                         
  177,  178,  179,  180,  181,  182,  183,  184,  185,  186,  187,  188,  189,  190,  191,  192                                                                                                         
  193,  194,  195,  196,  197,  198,  199,  200,  201,  202,  203,  204,  205,  206,  207,  208                                                                                                         
  209,  210,  211,  212,  213,  214,  215,  216,  217,  218,  219,  220,  221,  222,  223,  224                                                                                                         
  225,  226,  227,  228,  229,  230,  231,  232,  233,  234,  235,  236,  237,  238,  239,  240                                                                                                         
  241,  242,  243,  244,  245,  246,  247,  248,  249,  250,  251,  252,  253,  254,  255,  256                                                                                                         
  257,  258,  259,  260,  261,  262,  263,  264,  265,  266,  267,  268,  269,  270,  271,  272                                                                                                         
  273,  274,  275,  276,  277,  278,  279,  280,  281,  282,  283,  284,  285,  286,  287,  288                                                                                                         
  289,  290,  291,  292,  293,  294,  295,  296,  297,  298,  299,  300,  301,  302,  303,  304                                                                                                         
  305,  306,  307,  308,  309,  310,  311,  312,  313,  314,  315,  316,  317,  318,  319,  320                                                                                                         
** ... 41 like lines cut
*ELSET, ELSET=MIDDLE-ZONE                                                                                                                                                                               
  371,  372,  373,  374,  375,  376,  425,  426,  427,  428,  429,  430,  431,  432,  433,  434                                                                                                         
  435,  436,  437,  438,  439,  440,  441,  442,  443,  444,  445,  446,  447,  448,  449,  450                                                                                                         
  451,  452,  453,  454, 1053, 1054, 1055, 1056, 1057, 1058, 1059, 1060, 1061, 1062, 1063, 1064                                                                                                         
 1065, 1066, 1067, 1068, 1069, 1070, 1071, 1072, 1073, 1074, 1075, 1076, 1077, 1078, 1079, 1080                                                                                                         
 1081, 1082, 1083, 1084, 1085, 1086, 1087, 1088, 1089, 1090, 1091, 1092, 1093, 1094, 1095, 1096                                                                                                         
 1097, 1098, 1099, 1100, 1101, 1102, 1103, 1104, 1105, 1106, 1107, 1108, 1109, 1110, 1111, 1112                                                                                                         
 1113, 1114, 1115, 1116, 1117, 1118, 1119, 1120, 1121, 1122, 1123, 1124, 1125, 1126, 1127, 1128                                                                                                         
 1129, 1130, 1131, 1132, 1133, 1134, 1135, 1136, 1137, 1138, 1139, 1140, 1141, 1142, 1143, 1144                                                                                                         
 1145, 1146, 1147, 1148, 1149, 1150, 1151, 1152, 1153, 1154, 1155, 1156, 1157, 1158, 1159, 1160                                                                                                         
 1161, 1162, 1163, 1164, 1165, 1166, 1167, 1168, 1169, 1170, 1171, 1172, 1173, 1174, 1175, 1176                                                                                                         
 1177, 1178, 1179, 1180, 1181, 1182, 1183, 1184, 1185, 1186, 1187, 1188, 1189, 1190, 1191, 1192                                                                                                         
 1193, 1194, 1195, 1196, 1197, 1198, 1199, 1200, 1201, 1202, 1203, 1204, 1205, 1206, 1207, 1208                                                                                                         
 1209, 1210, 1211, 1212, 1213, 1214, 1215, 1216, 1217, 1218, 1219, 1220, 1221, 1222, 1223, 1224                                                                                                         
 1225, 1226, 1227, 1228, 1229, 1230, 1231, 1232, 1233, 1234, 1235, 1236, 1237, 1238, 1239, 1240                                                                                                         
 1241, 1242, 1243, 1244, 1245, 1246, 1247, 1248, 1249, 1250, 1251, 1252, 1253, 1254, 1255, 1256                                                                                                         
 1257, 1258, 1259, 1260, 1261, 1262, 1263, 1264, 1265, 1266, 1267, 1268, 1269, 1270, 1271, 1272                                                                                                         
 1273, 1274, 1275, 1276, 1277, 1278, 1279, 1280, 1281, 1282, 1283, 1284, 1285, 1286, 1287, 1288                                                                                                         
 1289, 1290, 1291, 1292, 1293, 1294, 1295, 1296, 1297, 1298, 1299, 1300, 1301, 1302, 1303, 1304                                                                                                         
 1305, 1306, 1307, 1308, 1309, 1310, 1311, 1312, 1313, 1314, 1315, 1316, 1317, 1318, 1319, 1320                                                                                                         
 1321, 1322, 1323, 1324, 1325, 1326, 1327, 1328, 1329, 1330, 1331, 1332, 1333, 1334, 1335, 1336                                                                                                         
** ... 8 like lines cut
*NSET, NSET=SURF1                                                                                                                                                                                       
    9,   10,   11,   12,   13,   16,   17,   18,   19,   20,   22,   23,   24,   25,   26,   27                                                                                                         
   28,   29,   30,   31,   32,   33,   34,   35,   36,   37,   38,   39,   40,   41,   42,   43                                                                                                         
   44,   45,   46,   47,   48,   49,   50,   51,   52,   53,   54,   55,   56,   57,   58,   59                                                                                                         
   60,   61,   62,   63,   64,   65,   66,   67,   68,   69,   70,   71,   72,   73,   74,   75                                                                                                         
   76,   77,   78,   79,   80,   81,   82,   83,   84,   85,   86,   87,   88,   89,   90,   91                                                                                                         
   92,   93,   94,   95,   96,   97,   98,   99,  100,  101,  102,  103,  104,  105,  106,  107                                                                                                         
  108,  109,  110,  111,  112,  113,  114,  115,  116,  117,  118,  119,  120,  121,  122,  123                                                                                                         
  124,  125,  126,  127,  128,  129,  130,  131,  132,  133,  134,  135,  136,  137,  138,  139                                                                                                         
  140,  141,  142,  143,  144,  145,  146,  147,  148,  149,  150,  151,  152,  153,  154,  155                                                                                                         
  156,  157,  158,  159,  160,  161,  162,  163,  164,  165,  166,  167,  168,  169,  170,  171                                                                                                         
  172,  173,  174,  175,  176,  177,  178,  179,  180,  181,  182,  183,  184,  185,  186,  187                                                                                                         
  188,  189,  190,  191,  192,  193,  194,  195,  196,  197,  198,  199,  200,  201,  202,  203                                                                                                         
  204,  205,  206,  207,  208,  209,  210,  211,  212,  213,  233,  234,  235,  236,  237,  238                                                                                                         
  239,  240,  241,  242,  243,  244,  245,  246,  247,  248,  249,  250,  251,  252,  253,  254                                                                                                         
  255,  256,  257,  258,  259,  260,  261,  262,  263,  264,  265,  266,  267,  268,  269,  270                                                                                                         
  271,  272,  273,  274,  275,  276,  277,  278,  279,  280,  281,  282,  283,  284,  285,  286                                                                                                         
  287,  288,  289,  290,  291,  292,  293,  294,  295,  296,  297,  298,  299,  300,  301,  302                                                                                                         
  303,  304,  305,  306,  307,  308,  309,  310,  311,  312,  313,  314,  315,  316,  317,  318                                                                                                         
  319,  320,  321,  322,  323,  324,  325,  326,  327,  328,  329,  330,  331,  332,  333,  334                                                                                                         
  335,  336,  337,  338,  339,  340,  341,  342,  343,  344,  345,  346,  347,  348,  349,  350                                                                                                         
** ... 256 like lines cut
**                                                                                                                                                                                                      
*SHELL SECTION,MATERIAL=mat0,ELSET=STRUCT,OFFSET=0.5                                                                                                                                                    
0.004                                                                                                                                                                                                   
*SHELL SECTION,MATERIAL=mat0,ELSET=SURF4-TIP,OFFSET=0.5                                                                                                                                                 
0.0005                                                                                                                                                                                                  
*SHELL SECTION,MATERIAL=mat0,ELSET=MIDDLE-ZONE,OFFSET=0.5                                                                                                                                               
0.0005                                                                                                                                                                                                  
*SHELL SECTION,MATERIAL=mat0,ELSET=LEADING-EDGE,OFFSET=0.5                                                                                                                                              
0.0002                                                                                                                                                                                                  
*RESTART,WRITE,FREQUENCY=1
*STEP, NLGEOM
                *DYNAMIC, ALPHA=-0.05, SOLVER=SPOOLES                                 
 0.20000000E-06,  0.10000000E-05
*BOUNDARY                                                                                                                                                                                               
ROOT, 1, 6                                                                                                                                                                                              
**                                                                                                                                                                                                      
*CLOAD                                                                                                                                                                                                  
       9,  1, -0.77739662E-02
       9,  2, -0.37930685E-01
       9,  3,  0.32872014E-03
      10,  1, -0.32645219E-02
      10,  2, -0.15510714E-01
      10,  3, -0.24012337E-06
      11,  1,  0.19161487E-01
      11,  2, -0.33567599E+00
      11,  3,  0.13614746E-02
      12,  1,  0.73121354E-02
      12,  2, -0.11827684E+00
      12,  3, -0.58337956E-04
      13,  1,  0.19083053E-01
      13,  2, -0.42572035E+00
      13,  3,  0.17446549E-02
      16,  1, -0.14947118E-02
      16,  2, -0.54951614E-02
      16,  3, -0.58261218E-04
      17,  1, -0.24544812E-02
      17,  2, -0.30433348E-01
** ... 20539 like lines cut
**
*NODE FILE
U
*EL FILE
S
**
**
*END STEP
