*HEADING
*NODE, NSET=allnode
1	,	0.116392	,	0.146556	,	0.000000
2	,	0.116404	,	0.178356	,	0.000000
3	,	0.147899	,	0.173842	,	0.000000
4	,	0.146356	,	0.143781	,	0.000000
5	,	0.171432	,	0.191722	,	0.000000
6	,	0.149770	,	0.210492	,	0.000000
7	,	0.121400	,	0.214572	,	0.000000
8	,	0.095327	,	0.202665	,	0.000000
9	,	0.079831	,	0.178552	,	0.000000
10	,	0.079831	,	0.149890	,	0.000000
11	,	0.095327	,	0.125777	,	0.000000
12	,	0.121400	,	0.113870	,	0.000000
13	,	0.149770	,	0.117950	,	0.000000
14	,	0.171432	,	0.136719	,	0.000000
15	,	0.179507	,	0.164221	,	0.000000
16	,	0.045822	,	0.146201	,	0.000000
17	,	0.057735	,	0.096464	,	0.000000
18	,	0.053691	,	0.119910	,	0.000000
19	,	0.082144	,	0.239807	,	0.000000
20	,	0.051548	,	0.206854	,	0.000000
** ... 3851 like lines cut
*ELEMENT, TYPE=C3D8, ELSET=BOLT
        51,        10,         9,         2,         1,        81,        80,        73,
        72
        52,        81,        80,        73,        72,       152,       151,       144,
       143
        53,       152,       151,       144,       143,       223,       222,       215,
       214
        54,       223,       222,       215,       214,       294,       293,       286,
       285
        55,         8,         9,        32,        20,        79,        80,       103,
        91
        56,        79,        80,       103,        91,       150,       151,       174,
       162
        57,       150,       151,       174,       162,       221,       222,       245,
       233
        58,       221,       222,       245,       233,       292,       293,       316,
       304
        59,         3,         2,         7,         6,        74,        73,        78,
        77
        60,        74,        73,        78,        77,       145,       144,       149,
       148
** ... 316 like lines cut
*ELEMENT, TYPE=C3D8, ELSET=BOLT
       251,       287,       290,       289,       299,       358,       361,       360,
       370
       252,       358,       361,       360,       370,       373,       376,       375,
       385
       253,       373,       376,       375,       385,       388,       391,       390,
       400
       254,       388,       391,       390,       400,       403,       406,       405,
       415
       255,       287,       286,       291,       290,       358,       357,       362,
       361
       256,       358,       357,       362,       361,       373,       372,       377,
       376
       257,       373,       372,       377,       376,       388,       387,       392,
       391
       258,       388,       387,       392,       391,       403,       402,       407,
       406
       259,       286,       293,       292,       291,       357,       364,       363,
       362
       260,       357,       364,       363,       362,       372,       379,       378,
       377
** ... 44 like lines cut
*ELEMENT, TYPE=C3D8, ELSET=FLANGE
      3007,      3732,      3980,      4001,      3731,      3458,      3866,      3991,
      3457
      3008,      3458,      3866,      3991,      3457,      3637,      3979,      4000,
      3636
      3009,      3733,      3981,      3980,      3732,      3459,      3867,      3866,
      3458
      3010,      3459,      3867,      3866,      3458,      3638,      3978,      3979,
      3637
      3011,      3734,      3982,      3981,      3733,      3460,      3868,      3867,
      3459
      3012,      3460,      3868,      3867,      3459,      3639,      3977,      3978,
      3638
      3013,      3735,      3983,      3982,      3734,      3461,      3869,      3868,
      3460
      3014,      3461,      3869,      3868,      3460,      3640,      3976,      3977,
      3639
      3015,      3736,      3984,      3983,      3735,      3462,      3870,      3869,
      3461
      3016,      3462,      3870,      3869,      3461,      3641,      3975,      3976,
      3640
** ... 628 like lines cut
*ELEMENT, TYPE=C3D8, ELSET=BOLT
      3343,       403,       402,       407,       406,      4004,      4003,      4008,
      4007
      3344,      4004,      4003,      4008,      4007,      4019,      4018,      4023,
      4022
      3345,      4019,      4018,      4023,      4022,      4034,      4033,      4038,
      4037
      3346,      4034,      4033,      4038,      4037,      4049,      4048,      4568,
      4567
      3347,       403,       404,       401,       402,      4004,      4005,      4002,
      4003
      3348,      4004,      4005,      4002,      4003,      4019,      4020,      4017,
      4018
      3349,      4019,      4020,      4017,      4018,      4034,      4035,      4032,
      4033
      3350,      4034,      4035,      4032,      4033,      4049,      4050,      4047,
      4048
      3351,       410,       409,       402,       401,      4011,      4010,      4003,
      4002
      3352,      4011,      4010,      4003,      4002,      4026,      4025,      4018,
      4017
** ... 44 like lines cut
*ELEMENT, TYPE=C3D8, ELSET=BASE
      3915,      4234,      4235,      4180,      4179,      4819,      4820,      4765,
      4764
      3916,      4819,      4820,      4765,      4764,      5404,      5405,      5350,
      5349
      3917,      5404,      5405,      5350,      5349,      5989,      5990,      5935,
      5934
      3918,      5989,      5990,      5935,      5934,      6574,      6575,      6520,
      6519
      3919,      4540,      4081,      4082,      4258,      5125,      4666,      4667,
      4843
      3920,      5125,      4666,      4667,      4843,      5710,      5251,      5252,
      5428
      3921,      5710,      5251,      5252,      5428,      6295,      5836,      5837,
      6013
      3922,      6295,      5836,      5837,      6013,      6880,      6421,      6422,
      6598
      3923,      4170,      4171,      4149,      4150,      4755,      4756,      4734,
      4735
      3924,      4755,      4756,      4734,      4735,      5340,      5341,      5319,
      5320
** ... 4228 like lines cut
*ELEMENT, TYPE=C3D6, ELSET=BOLT
        79,        13,         4,        14,        84,        75,        85
        80,        84,        75,        85,       155,       146,       156
        81,       155,       146,       156,       226,       217,       227
        82,       226,       217,       227,       297,       288,       298
       103,        59,        34,        70,       130,       105,       141
       104,       130,       105,       141,       201,       176,       212
       105,       201,       176,       212,       272,       247,       283
       106,       272,       247,       283,       343,       318,       354
       119,        31,        54,        53,       102,       125,       124
       120,       102,       125,       124,       173,       196,       195
       121,       173,       196,       195,       244,       267,       266
       122,       244,       267,       266,       315,       338,       337
       139,        33,        42,        41,       104,       113,       112
       140,       104,       113,       112,       175,       184,       183
       141,       175,       184,       183,       246,       255,       254
       142,       246,       255,       254,       317,       326,       325
       147,        32,        47,        46,       103,       118,       117
       148,       103,       118,       117,       174,       189,       188
       149,       174,       189,       188,       245,       260,       259
       150,       245,       260,       259,       316,       331,       330
** ... 12 like lines cut
*ELEMENT, TYPE=C3D6, ELSET=BOLT
       279,       297,       288,       298,       368,       359,       369
       280,       368,       359,       369,       383,       374,       384
       281,       383,       374,       384,       398,       389,       399
       282,       398,       389,       399,       413,       404,       414
*ELEMENT, TYPE=C3D6, ELSET=FLANGE
      3331,      3850,      3851,      3852,      3525,      3484,      3483
      3332,      3525,      3484,      3483,      3704,      3663,      3662
      3333,      3853,      3856,      3857,      3548,      3543,      3542
      3334,      3548,      3543,      3542,      3727,      3722,      3721
      3335,      3855,      3853,      3854,      3532,      3548,      3549
      3336,      3532,      3548,      3549,      3711,      3727,      3728
      3337,      3858,      3859,      3860,      3521,      3520,      3547
      3338,      3521,      3520,      3547,      3700,      3699,      3726
      3339,      3861,      3862,      3860,      3518,      3537,      3547
      3340,      3518,      3537,      3547,      3697,      3716,      3726
      3341,      3863,      3864,      3865,      3513,      3536,      3514
      3342,      3513,      3536,      3514,      3692,      3715,      3693
*ELEMENT, TYPE=C3D6, ELSET=BOLT
      3367,       413,       404,       414,      4014,      4005,      4015
      3368,      4014,      4005,      4015,      4029,      4020,      4030
      3369,      4029,      4020,      4030,      4044,      4035,      4045
      3370,      4044,      4035,      4045,      4574,      4050,      4575
*ELEMENT, TYPE=C3D6, ELSET=BASE
      4783,      4543,      4573,      4572,      5128,      4043,      4042
      4784,      5128,      4043,      4042,      5713,      4028,      4027
      4785,      5713,      4028,      4027,      6298,      4013,      4012
      4786,      6298,      4013,      4012,      6883,       412,       411
      4919,      4574,      4542,      4575,      4044,      5127,      4045
      4920,      4044,      5127,      4045,      4029,      5712,      4030
      4921,      4029,      5712,      4030,      4014,      6297,      4015
      4922,      4014,      6297,      4015,       413,      6882,       414
      5179,      4541,      4539,      4540,      5126,      5124,      5125
      5180,      5126,      5124,      5125,      5711,      5709,      5710
      5181,      5711,      5709,      5710,      6296,      6294,      6295
      5182,      6296,      6294,      6295,      6881,      6879,      6880
      5315,      4538,      4536,      4537,      5123,      5121,      5122
      5316,      5123,      5121,      5122,      5708,      5706,      5707
      5317,      5708,      5706,      5707,      6293,      6291,      6292
      5318,      6293,      6291,      6292,      6878,      6876,      6877
      5455,      4535,      4533,      4534,      5120,      5118,      5119
      5456,      5120,      5118,      5119,      5705,      5703,      5704
      5457,      5705,      5703,      5704,      6290,      6288,      6289
      5458,      6290,      6288,      6289,      6875,      6873,      6874
**************************
*SOLID SECTION, ELSET=BOLT, MATERIAL=BOLT
*MATERIAL,NAME=BOLT
*ELASTIC,TYPE=ISOTROPIC
 2.07000E+11,  3.00000E-01
*SOLID SECTION, ELSET=FLANGE, MATERIAL=FLANGE
*MATERIAL,NAME=FLANGE
*ELASTIC,TYPE=ISOTROPIC
 2.07000E+11,  3.00000E-01
*SOLID SECTION, ELSET=BASE, MATERIAL=BASE
*MATERIAL,NAME=BASE
*ELASTIC,TYPE=ISOTROPIC
 2.07000E+11,  3.00000E-01
**************************
*Elset, elset=head_bottom_S2
  58,  94,  98, 102, 106, 110, 114, 118, 122, 126, 130, 134, 138, 142, 146, 150
 154, 158, 162, 166, 170, 174, 178, 182, 186, 190, 194, 198, 202, 206, 210, 214
 218, 222, 226, 230, 234, 238, 242, 246, 250
*Surface, type=ELEMENT, name=head_bottom
head_bottom_S2, S2
*Elset, elset=Flange_top_S1, generate
 3007,  3341,     2
*Surface, type=ELEMENT, name=Flange_top
Flange_top_S1, S1
*Elset, elset=Flange_Bottom_S2, generate
 3008,  3342,     2
*Surface, type=ELEMENT, name=Flange_Bottom
Flange_Bottom_S2, S2
*Elset, elset=Base_top_S2, generate
 3918,  6058,     4
*Surface, type=ELEMENT, name=Base_top
Base_top_S2, S2
*****************************
*****************************
*Contact Pair, interaction=INTER, small sliding, adjust=0.0
Flange_top, Head_bottom
*Contact Pair, interaction=INTER, small sliding, adjust=0.0
Base_top, Flange_bottom
************************************
*Surface Interaction, name=INTER
1
*Surface Behavior, pressure-overclosure=LINEAR
1e+08, 1
*FRICTION
0.1,1000
*****************************
*******************************************
*Elset,elset=Pre_Tension
280,276,268,284,272,264,252,256,260
*******************************************
*Surface, type=ELEMENT, name=Pre_Tension
Pre_Tension, S1
*******************************************
*Node
      99999,           0.,           0.,           0.
*Pre-tension Section, surface= Pre_Tension, node=99999
  0,          0,           1
*******************************************
*Nset, nset=Ground
 4062, 4063, 4064, 4065, 4066, 4067, 4068, 4069, 4240, 4257, 4263, 4269, 4275, 4281, 4287, 4289
 4290, 4291, 4292, 4293, 4294, 4295, 4296, 4297, 4475, 4485, 4490, 4497, 4502, 4508, 4514, 4520
 4526, 4532, 4539, 4541, 4555, 4586, 4609, 4630
*Boundary
Ground, 1, 1
Ground, 2, 2
Ground, 3, 3
*******************************************
*STEP,INC=1000,NLGEOM
*Static
0.1, 1., 1e-05, 1.
*Cload
99999, 1, 80000
*ELEMENT OUTPUT
S,PEEQ
*CONTACT OUTPUT
CDIS,CSTR
*NODE FILE
U
*EL FILE
S,E
*CONTACT FILE
CDIS,CSTR,CELS 
**
** === OUTPUT REQUESTS FOR .DAT *.MSG FILES ===
**
*CONTACT PRINT, FREQUENCY=10, TOTALS=YES
CSTRESS, CDISP,CELS
*PRINT, CONTACT=YES
*END STEP