*HEADING
*Node
      1,   11.3498096,           0.,  -3.89639306
      2,   9.46968365,           0.,  -7.37055111
      3,   6.56337595,           0.,    -10.04599
      4,    2.9458251,           0.,  -11.6328001
      5, -0.990952015,           0.,  -11.9590101
      6,  -4.82034492,           0.,  -10.9892797
      7,  -8.12737846,           0.,  -8.82868576
      8,  -10.5536804,           0.,  -5.71136808
      9,  -11.8363304,           0.,  -1.97513402
     10,  -11.8363304,           0.,   1.97513402
     11,  -10.5536804,           0.,   5.71136808
     12,  -8.12737846,           0.,   8.82868576
     13,  -4.82034492,           0.,   10.9892797
     14, -0.990952015,           0.,   11.9590101
     15,    2.9458251,           0.,   11.6328001
     16,   6.56337595,           0.,     10.04599
     17,   9.46968365,           0.,   7.37055111
     18,   11.3498096,           0.,   3.89639306
     19,   7.08364582,           0.,   3.71778393
     20,   4.54451513,           0.,   6.58386612
** ... 3528 like lines cut
*Element, type=C3D8
339,  164,  163,   33,   34,  572,  571,  441,  442
340,  572,  571,  441,  442,  960,  959,  829,  830
341,  960,  959,  829,  830, 1348, 1347, 1217, 1218
342, 1348, 1347, 1217, 1218, 1736, 1735, 1605, 1606
343, 1736, 1735, 1605, 1606, 2124, 2123, 1993, 1994
344,  114,  104,  103,  135,  522,  512,  511,  543
345,  522,  512,  511,  543,  910,  900,  899,  931
346,  910,  900,  899,  931, 1298, 1288, 1287, 1319
347, 1298, 1288, 1287, 1319, 1686, 1676, 1675, 1707
348, 1686, 1676, 1675, 1707, 2074, 2064, 2063, 2095
349,  135,  254,  137,  136,  543,  662,  545,  544
350,  543,  662,  545,  544,  931, 1050,  933,  932
351,  931, 1050,  933,  932, 1319, 1438, 1321, 1320
352, 1319, 1438, 1321, 1320, 1707, 1826, 1709, 1708
353, 1707, 1826, 1709, 1708, 2095, 2214, 2097, 2096
354,  227,  328,  329,  219,  635,  736,  737,  627
355,  635,  736,  737,  627, 1023, 1124, 1125, 1015
356, 1023, 1124, 1125, 1015, 1411, 1512, 1513, 1403
357, 1411, 1512, 1513, 1403, 1799, 1900, 1901, 1791
358, 1799, 1900, 1901, 1791, 2187, 2288, 2289, 2179
** ... 2500 like lines cut
*Element, type=C3D6
584,  264,   17,   16,  672,  425,  424
585,  672,  425,  424, 1060,  813,  812
586, 1060,  813,  812, 1448, 1201, 1200
587, 1448, 1201, 1200, 1836, 1589, 1588
588, 1836, 1589, 1588, 2224, 1977, 1976
599,  260,    2,    1,  668,  410,  409
600,  668,  410,  409, 1056,  798,  797
601, 1056,  798,  797, 1444, 1186, 1185
602, 1444, 1186, 1185, 1832, 1574, 1573
603, 1832, 1574, 1573, 2220, 1962, 1961
944,    7,  255,  254,  415,  663,  662
945,  415,  663,  662,  803, 1051, 1050
946,  803, 1051, 1050, 1191, 1439, 1438
947, 1191, 1439, 1438, 1579, 1827, 1826
948, 1579, 1827, 1826, 1967, 2215, 2214
954,  273,  272,  271,  681,  680,  679
955,  681,  680,  679, 1069, 1068, 1067
956, 1069, 1068, 1067, 1457, 1456, 1455
957, 1457, 1456, 1455, 1845, 1844, 1843
958, 1845, 1844, 1843, 2233, 2232, 2231
** ... 165 like lines cut
*Elset, elset=BASE
  339,  340,  341,  342,  343,  344,  345,  346,  347,  348,  349,  350,  351,  352,  353,  354
  355,  356,  357,  358,  359,  360,  361,  362,  363,  364,  365,  366,  367,  368,  369,  370
  371,  372,  373,  374,  375,  376,  377,  378,  379,  380,  381,  382,  383,  384,  385,  386
  387,  388,  389,  390,  391,  392,  393,  394,  395,  396,  397,  398,  399,  400,  401,  402
  403,  404,  405,  406,  407,  408,  409,  410,  411,  412,  413,  414,  415,  416,  417,  418
  419,  420,  421,  422,  423,  424,  425,  426,  427,  428,  429,  430,  431,  432,  433,  434
  435,  436,  437,  438,  439,  440,  441,  442,  443,  444,  445,  446,  447,  448,  449,  450
  451,  452,  453,  454,  455,  456,  457,  458,  459,  460,  461,  462,  463,  464,  465,  466
  467,  468,  469,  470,  471,  472,  473,  474,  475,  476,  477,  478,  479,  480,  481,  482
  483,  484,  485,  486,  487,  488,  489,  490,  491,  492,  493,  494,  495,  496,  497,  498
  499,  500,  501,  502,  503,  504,  505,  506,  507,  508,  509,  510,  511,  512,  513,  514
  515,  516,  517,  518,  519,  520,  521,  522,  523,  524,  525,  526,  527,  528,  529,  530
  531,  532,  533,  534,  535,  536,  537,  538,  539,  540,  541,  542,  543,  544,  545,  546
  547,  548,  549,  550,  551,  552,  553,  554,  555,  556,  557,  558,  559,  560,  561,  562
  563,  564,  565,  566,  567,  568,  569,  570,  571,  572,  573,  574,  575,  576,  577,  578
  579,  580,  581,  582,  583,  584,  585,  586,  587,  588,  589,  590,  591,  592,  593,  594
  595,  596,  597,  598,  599,  600,  601,  602,  603,  604,  605,  606,  607,  608,  609,  610
  611,  612,  613,  614,  615,  616,  617,  618,  619,  620,  621,  622,  623,  624,  625,  626
  627,  628,  629,  630,  631,  632,  633,  634,  635,  636,  637,  638,  639,  640,  641,  642
  643,  644,  645,  646,  647,  648,  649,  650,  651,  652,  653,  654,  655,  656,  657,  658
** ... 120 like lines cut
*Elset, elset=BOLT
 1954, 1955, 1956, 1957, 1958, 1959, 1960, 1961, 1962, 1963, 1964, 1965, 1966, 1967, 1968, 1969
 1970, 1971, 1972, 1973, 1974, 1975, 1976, 1977, 1978, 1979, 1980, 1981, 1982, 1983, 1984, 1985
 1986, 1987, 1988, 1989, 1990, 1991, 1992, 1993, 1994, 1995, 1996, 1997, 1998, 1999, 2000, 2001
 2002, 2003, 2004, 2005, 2006, 2007, 2008, 2009, 2010, 2011, 2012, 2013, 2014, 2015, 2016, 2017
 2018, 2019, 2020, 2021, 2022, 2023, 2024, 2025, 2026, 2027, 2028, 3269, 3270, 3271, 3272, 3273
 3274, 3275, 3276, 3277, 3278, 3279, 3280, 3281, 3282, 3283, 3284, 3285, 3286, 3287, 3288, 3289
 3290, 3291, 3292, 3293, 3294, 3295, 3296, 3297, 3298, 3299, 3300, 3301, 3302, 3303, 3304, 3305
 3306, 3307, 3308, 3309, 3310, 3311, 3312, 3313, 3314, 3315, 3316, 3317, 3318, 3319, 3320, 3321
 3322, 3323, 3324, 3325, 3326, 3327, 3328, 3513, 3514, 3515, 3516, 3517, 3518, 3519, 3520, 3521
 3522, 3523, 3524, 3525, 3526, 3527, 3528, 3529, 3530, 3531, 3532, 3533, 3534, 3535, 3536, 3537
 3538, 3539, 3540, 3541, 3542, 3543, 3544, 3545, 3546, 3547, 3548, 3549, 3550, 3551, 3552, 3553
 3554, 3555, 3556, 3557, 3558, 3559, 3560, 3561, 3562, 3563, 3564, 3565, 3566, 3567, 3568, 3569
 3570, 3571, 3572, 3573, 3574, 3575, 3576, 3577, 3578, 3579, 3580, 3581, 3582, 3583, 3584, 3585
 3586, 3587, 3588, 3589, 3590, 3591, 3592, 3593, 3594, 3595, 3596, 3597, 3598, 3599, 3600, 3601
 3602, 3603, 3604, 3605, 3606, 3607, 3608, 3609, 3610, 3611, 3612, 3613, 3614, 3615, 3616, 3617
 3618, 3619, 3620, 3621, 3622, 3623, 3624, 3625, 3626, 3627, 3628, 3629, 3630, 3631, 3632, 3633
 3634, 3635, 3636, 3637, 3638, 3639, 3640, 3641, 3642, 3643, 3644, 3645, 3646, 3647, 3648, 3649
 3650, 3651, 3652, 3653, 4642, 4643, 4644, 4645, 4646, 4647, 4648, 4649, 4650, 4651, 4652, 4653
 4654, 4655, 4656, 4657, 4658, 4659, 4660, 4661, 4662, 4663, 4664, 4665, 4666, 4667, 4668, 4669
 4670, 4671
*Elset, elset=FLANGE, generate
 4734,  4857,     1
*Elset, elset=WASHER, generate
 3654,  3693,     1
*Solid Section, elset=BASE, material=BASE_STEEL
,
*Solid Section, elset=BOLT, material=BOLT_STEEL
,
*Solid Section, elset=WASHER, material=WASHER_STEEL
,
*MATERIAL,NAME=BASE_STEEL
*ELASTIC,TYPE=ISOTROPIC
 2.07000E+05,  3.00000E-01
******************************************************************************
*MATERIAL,NAME=BOLT_STEEL
*ELASTIC,TYPE=ISOTROPIC
 2.07000E+05,  3.00000E-01
******************************************************************************
*MATERIAL,NAME=WASHER_STEEL
*ELASTIC,TYPE=ISOTROPIC
 2.07000E+05,  3.00000E-01
 ******************************************************************************
*SOLID SECTION, ELSET=FLANGE, MATERIAL=FLANGE_STEEL
*MATERIAL,NAME=FLANGE_STEEL
*ELASTIC,TYPE=ISOTROPIC
 2.07000E+05,  3.00000E-01
 ******************************************************************************
 *Elset, elset=Bolt_Master_S1, generate
 3558,  3651,     3
*Surface, type=ELEMENT, name=Bolt_Master
Bolt_Master_S1, S1
*Elset, elset=Washer_top_slave_S1, generate
 3654,  3693,     1
*Surface, type=ELEMENT, name=Washer_top_slave
Washer_top_slave_S1, S1
*Elset, elset=Washer_bottom_master_S2, generate
 3654,  3693,     1
*Surface, type=ELEMENT, name=Washer_bottom_master
Washer_bottom_master_S2, S2
*Elset, elset=Flange_top_slave_S1, generate
 4734,  4856,     2
*Surface, type=ELEMENT, name=Flange_top_slave
Flange_top_slave_S1, S1
*Elset, elset=Flange_bottom_Master_S2, generate
 4735,  4857,     2
*Surface, type=ELEMENT, name=Flange_bottom_Master
Flange_bottom_Master_S2, S2
*Elset, elset=Base_slave_S2, generate
 2030,  2648,     2
*Surface, type=ELEMENT, name=Base_slave
Base_slave_S2, S2
******************************************************************************
*CONTACT PAIR,INTERACTION=INTER,SMALL SLIDING,TYPE=NODE TO SURFACE
Washer_top_slave, Bolt_Master
*CONTACT PAIR,INTERACTION=INTER,SMALL SLIDING,TYPE=NODE TO SURFACE
Flange_top_slave, Washer_bottom_master
*CONTACT PAIR,INTERACTION=INTER,SMALL SLIDING,TYPE=NODE TO SURFACE
Base_slave, Flange_bottom_Master
********************************
*SURFACE INTERACTION, NAME=INTER
1,
*SURFACE BEHAVIOR,PRESSURE-OVERCLOSURE=LINEAR
1e6,1
***SURFACE BEHAVIOR,PRESSURE-OVERCLOSURE=TIED
**100000,1
*FRICTION
0.1,1000
*Nset, nset=Ground
  33,  34,  35,  36,  37,  40,  97,  98,  99, 100, 101, 111, 113, 153, 154, 155
 156, 157, 261, 263
 ******************************************************************************
*Boundary
Ground, 1, 1
Ground, 2, 2
Ground, 3, 3
******************************************************************************
*Elset,elset=Pre_Tension
3314,3320,3302,3318,3312,3300,3324,3326,3316,3306,3322,3328,3310,3308,3304
*******************************************
*Surface, type=ELEMENT, name=Pre_Tension
Pre_Tension, S1
*******************************************
*Node
      6329,           0.,           0.,           0.
*Pre-tension Section, surface= Pre_Tension, node=6329
  0,          -1,           0
******************************************************************************
*STEP,INC=1000,NLGEOM
*Static
0.1, 1., 1e-05, 1.
*Cload
6329, 1, 80000
*CONTACT FILE
CDIS,CSTR,CELS 
*****************************************
*CONTACT PRINT, FREQUENCY=1000, TOTALS=YES
CSTRESS, CDISP,CELS
*PRINT, CONTACT=YES
********
*END STEP
******************************************************************************