** Generated by Mecway 6.0
*NODE
1,-3.006981176002,-0.07694342326686,0.1014338883191
2,-2.927023834973,-0.0769434259084,0.1004844593333
3,-2.847066493391,-0.07694342975421,0.09956062207505
4,-2.767109151399,-0.0769434347628,0.0986623762778
5,-2.687151809049,-0.07694344088061,0.09778972168095
6,-2.607194466363,-0.07694344805028,0.09694265802566
7,-2.527237123352,-0.07694345621325,0.09612118505365
8,-2.447279780024,-0.07694346531058,0.0953253025068
9,-2.367322436383,-0.07694347528323,0.094555010127
10,-2.287365092434,-0.07694348607213,0.09381030765619
11,-2.207407748182,-0.07694349761819,0.09309119483627
12,-2.127450403633,-0.07694350986233,0.09239767140914
13,-2.04749305879,-0.07694352274548,0.09172973711672
14,-1.967535713658,-0.07694353620854,0.09108739170087
15,-1.887578368243,-0.07694355019244,0.09047063490349
16,-1.807621022548,-0.0769435646381,0.08987946646645
17,-1.727663676579,-0.07694357948645,0.08931388613161
18,-1.64770633034,-0.07694359467839,0.08877389364083
19,-1.567748983836,-0.07694361015487,0.08825948873596
20,-1.487791637072,-0.07694362585682,0.08777067115883
** ... 4511 like lines cut
*ELEMENT,TYPE=S8
1,3919,3920,4170,4169,765,1776,1777,1772
2,3920,3921,4171,4170,769,1780,1781,1776
3,3921,3922,4172,4171,773,1784,1785,1780
4,3922,3923,4173,4172,777,1788,1789,1784
5,3923,3924,4174,4173,781,1792,1793,1788
6,3924,3925,4175,4174,785,1796,1797,1792
7,3925,3926,4176,4175,789,1800,1801,1796
8,3926,3927,4177,4176,793,1804,1805,1800
9,3927,3928,4178,4177,797,1808,1809,1804
10,3928,3929,4179,4178,801,1812,1813,1808
11,3929,3930,4180,4179,805,1816,1817,1812
12,3930,3931,4181,4180,809,1820,1821,1816
13,3931,3932,4182,4181,813,1824,1825,1820
14,3932,3933,4183,4182,817,1828,1829,1824
15,3933,3934,4184,4183,821,1832,1833,1828
16,3934,3935,4185,4184,825,1836,1837,1832
17,3935,3936,4186,4185,829,1840,1841,1836
18,3936,3937,4187,4186,833,1844,1845,1840
19,3937,3938,4188,4187,837,1848,1849,1844
20,3938,3939,4189,4188,841,1852,1853,1848
** ... 1477 like lines cut
*ELEMENT,TYPE=S6
401,482,481,359,597,598,599
459,4386,4267,4266,600,2173,3146
461,4385,4384,4264,2649,604,3133
1096,472,473,595,3489,607,608
1100,539,538,416,2958,610,611
1104,410,411,533,2667,613,614
*NSET,NSET=Face1
1132
1135
1139
1143
1147
1151
2114
3131
3136
3141
3149
3155
3614
3615
3745
3746
3747
3748
3749
3879
** ... 4 like lines cut
*NSET,NSET=Face2
601
615
619
623
627
631
635
2115
2123
2131
2139
2146
3612
3613
3616
3617
3618
3619
3620
3874
** ... 4 like lines cut
*NSET,NSET=displacement_nodes
4530
*NSET,NSET=displacement_nodes(2)
4530
*NSET,NSET=displacement_nodes(3)
4530
*NSET,NSET=displacement_nodes(4)
4531
*NSET,NSET=displacement_nodes(5)
4529
*NSET,NSET=displacement_nodes(6)
4528
*NSET,NSET=displacement_nodes(7)
4528
*NSET,NSET=force_nodes
4528
*ELSET,ELSET=1-200Bow
1
2
3
4
5
6
7
8
9
10
11
12
13
14
15
16
17
18
19
20
** ... 1483 like lines cut
*MATERIAL,NAME=Material
*ELASTIC,TYPE=ISOTROPIC
210000000000,0.3
*DENSITY
7850
*SHELL SECTION,ELSET=1-200Bow,MATERIAL=Material
0.016
*BOUNDARY
4528,2,,0
4528,3,,0
4529,1,,0
4530,1,,0
4530,2,,0
4530,3,,0
4531,1,,0
*RIGID BODY, NSET=Face1, REF NODE=4530, ROT NODE=4531

*RIGID BODY, NSET=Face2, REF NODE=4528, ROT NODE=4529
*STEP
*BUCKLE
3
*CLOAD
4528,1,100000
*DLOAD
1-200Bow,GRAV,0,1,0,0
*DLOAD
1-200Bow,GRAV,0,0,1,0
*DLOAD
1-200Bow,GRAV,9.81,0,0,1
*NODE FILE,GLOBAL=YES
U
*END STEP
