*HEADING
 This is a superstructure for a box type
joint
*NODE
1,-200,-200,100
2,-200,-200,93.75
3,-200,-200,87.5
4,-200,-200,81.25
5,-200,-200,75
6,-200,-200,68.75
7,-200,-200,62.5
8,-200,-200,56.25
9,-200,-200,50
10,-200,-200,43.75
11,-200,-200,37.5
12,-200,-200,31.25
13,-200,-200,25
14,-200,-200,18.75
15,-200,-200,12.5
16,-200,-200,6.25
17,-200,-200,0
18,-200,-200,-6.25
19,-200,-200,-12.5
20,-200,-200,-18.75
** ... 139405 like lines cut
*NSET, NSET=NODEA
 1
*NSET, NSET=NODEB
 33
*NSET, NSET=NODEC
 2113
*NSET, NSET=NODED
 2145
*NSET, NSET=FACEBA

1073
*NSET, NSET=NODEE
 137281
*NSET, NSET=NODEF
 137313
*NSET, NSET=NODEG
 139393
*NSET, NSET=NODEH
 139425
*NSET, NSET=FACEFR

138353
*NSET, NSET=FACETP

70769
*NSET, NSET=FACEBO
 68657
*NSET, NSET=CENTRE
 69713
*ELEMENT, TYPE=S4R, ELSET=BACK
1,1,2,35,34
2,2,3,36,35
3,3,4,37,36
4,4,5,38,37
5,5,6,39,38
6,6,7,40,39
7,7,8,41,40
8,8,9,42,41
9,9,10,43,42
10,10,11,44,43
11,11,12,45,44
12,12,13,46,45
13,13,14,47,46
14,14,15,48,47
15,15,16,49,48
16,16,17,50,49
17,17,18,51,50
18,18,19,52,51
19,19,20,53,52
20,20,21,54,53
** ... 2028 like lines cut
*ELEMENT, TYPE=S4R, ELSET=FRONT
2049,137281,137282,137315,137314
2050,137282,137283,137316,137315
2051,137283,137284,137317,137316
2052,137284,137285,137318,137317
2053,137285,137286,137319,137318
2054,137286,137287,137320,137319
2055,137287,137288,137321,137320
2056,137288,137289,137322,137321
2057,137289,137290,137323,137322
2058,137290,137291,137324,137323
2059,137291,137292,137325,137324
2060,137292,137293,137326,137325
2061,137293,137294,137327,137326
2062,137294,137295,137328,137327
2063,137295,137296,137329,137328
2064,137296,137297,137330,137329
2065,137297,137298,137331,137330
2066,137298,137299,137332,137331
2067,137299,137300,137333,137332
2068,137300,137301,137334,137333
** ... 2028 like lines cut
*ELEMENT, TYPE=S4R, ELSET=TOP
4097,2113,2114,4259,4258
4098,2114,2115,4260,4259
4099,2115,2116,4261,4260
4100,2116,2117,4262,4261
4101,2117,2118,4263,4262
4102,2118,2119,4264,4263
4103,2119,2120,4265,4264
4104,2120,2121,4266,4265
4105,2121,2122,4267,4266
4106,2122,2123,4268,4267
4107,2123,2124,4269,4268
4108,2124,2125,4270,4269
4109,2125,2126,4271,4270
4110,2126,2127,4272,4271
4111,2127,2128,4273,4272
4112,2128,2129,4274,4273
4113,2129,2130,4275,4274
4114,2130,2131,4276,4275
4115,2131,2132,4277,4276
4116,2132,2133,4278,4277
** ... 2028 like lines cut
*ELEMENT, TYPE=S4R, ELSET=BOTTOM
6145,1,2,2147,2146
6146,2,3,2148,2147
6147,3,4,2149,2148
6148,4,5,2150,2149
6149,5,6,2151,2150
6150,6,7,2152,2151
6151,7,8,2153,2152
6152,8,9,2154,2153
6153,9,10,2155,2154
6154,10,11,2156,2155
6155,11,12,2157,2156
6156,12,13,2158,2157
6157,13,14,2159,2158
6158,14,15,2160,2159
6159,15,16,2161,2160
6160,16,17,2162,2161
6161,17,18,2163,2162
6162,18,19,2164,2163
6163,19,20,2165,2164
6164,20,21,2166,2165
** ... 2028 like lines cut
*ELEMENT, TYPE=S4R, ELSET=WEB
8193,17,50,2195,2162
8194,50,83,2228,2195
8195,83,116,2261,2228
8196,116,149,2294,2261
8197,149,182,2327,2294
8198,182,215,2360,2327
8199,215,248,2393,2360
8200,248,281,2426,2393
8201,281,314,2459,2426
8202,314,347,2492,2459
8203,347,380,2525,2492
8204,380,413,2558,2525
8205,413,446,2591,2558
8206,446,479,2624,2591
8207,479,512,2657,2624
8208,512,545,2690,2657
8209,545,578,2723,2690
8210,578,611,2756,2723
8211,611,644,2789,2756
8212,644,677,2822,2789
** ... 4076 like lines cut
*SHELL SECTION, ELSET=BACK, MATERIAL=STEEL1
12
*SHELL SECTION, ELSET=FRONT, MATERIAL=STEEL1
12
*SHELL SECTION, ELSET=TOP, MATERIAL=STEEL1
12
*SHELL SECTION, ELSET=BOTTOM, MATERIAL=STEEL1
12
*SHELL SECTION, ELSET=WEB, MATERIAL=STEEL1
8
*MATERIAL, NAME=STEEL1
*ELASTIC
 200E3, 0.3
*DENSITY
 7.7E-9
*EQUATION
** Back face
2
NODEC, 1, 1, NODEA, 1, 1
2
NODEA, 1, 1, NODEB, 1, 1
2
NODEB, 1, 1, NODED, 1, 1
** Front face
2
NODEG, 1, 1, NODEE, 1, 1
2
NODEE, 1, 1, NODEF, 1, 1
2
NODEF, 1, 1, NODEH, 1, 1
** Top face
2
NODEC, 2, 1, NODED, 2, 1
2
NODED, 2, 1, NODEH, 2, 1
2
NODEH, 2, 1, NODEG, 2, 1
** Bottom face
2
NODEA, 2, 1, NODEB, 2, 1
2
NODEB, 2, 1, NODEF, 2, 1
2
NODEF, 2, 1, NODEE, 2, 1
*STEP
*SUBSTRUCTURE GENERATE, TYPE=Z200, OVERWRITE, RECOVERY MATRIX=YES
*RETAINED NODAL DOFS, SORTED=NO
 139425,1
 137281,2
*SUBSTRUCTURE MATRIX OUTPUT, OUTPUT FILE=USER DEFINED, FILE NAME=box1, STIFFNESS=YES
*END STEP
