*HEADING
MODEL DYNAMICALLY GENERATED BOX_TEST_X1.inp
** THIS MESH WAS GENERATED ON Wednesday, January 9th, 2013 at 09:34:12 AM
********************************************************************************
********************************************************************************
*NODE, NSET=NA_PLATE
101, 0.0, -5.0, 10.0
102, 0.0, -4.16666666667, 10.0
103, 0.0, -3.33333333333, 10.0
104, 0.0, -2.5, 10.0
105, 0.0, -1.66666666667, 10.0
106, 0.0, -0.833333333333, 10.0
107, 0.0, 0.0, 10.0
108, 0.0, 0.833333333333, 10.0
109, 0.0, 1.66666666667, 10.0
110, 0.0, 2.5, 10.0
111, 0.0, 3.33333333333, 10.0
112, 0.0, 4.16666666667, 10.0
113, 0.0, 5.0, 10.0
201, 0.833333333333, -5.0, 10.0
203, 0.833333333333, -3.33333333333, 10.0
205, 0.833333333333, -1.66666666667, 10.0
207, 0.833333333333, 0.0, 10.0
209, 0.833333333333, 1.66666666667, 10.0
211, 0.833333333333, 3.33333333333, 10.0
213, 0.833333333333, 5.0, 10.0
** ... 113 like lines cut
*NODE, NSET=NB_PLATE
10101, 10.0, -5.0, 20.0
10102, 10.0, -4.16666666667, 20.0
10103, 10.0, -3.33333333333, 20.0
10104, 10.0, -2.5, 20.0
10105, 10.0, -1.66666666667, 20.0
10106, 10.0, -0.833333333333, 20.0
10107, 10.0, 0.0, 20.0
10108, 10.0, 0.833333333333, 20.0
10109, 10.0, 1.66666666667, 20.0
10110, 10.0, 2.5, 20.0
10111, 10.0, 3.33333333333, 20.0
10112, 10.0, 4.16666666667, 20.0
10113, 10.0, 5.0, 20.0
10201, 9.16666666667, -5.0, 20.0
10203, 9.16666666667, -3.33333333333, 20.0
10205, 9.16666666667, -1.66666666667, 20.0
10207, 9.16666666667, 0.0, 20.0
10209, 9.16666666667, 1.66666666667, 20.0
10211, 9.16666666667, 3.33333333333, 20.0
10213, 9.16666666667, 5.0, 20.0
** ... 113 like lines cut
*NODE, NSET=NC_PLATE
20201, 10.0, -5.0, 10.8333333333
20203, 10.0, -3.33333333333, 10.8333333333
20205, 10.0, -1.66666666667, 10.8333333333
20207, 10.0, 0.0, 10.8333333333
20209, 10.0, 1.66666666667, 10.8333333333
20211, 10.0, 3.33333333333, 10.8333333333
20213, 10.0, 5.0, 10.8333333333
20301, 10.0, -5.0, 11.6666666667
20302, 10.0, -4.16666666667, 11.6666666667
20303, 10.0, -3.33333333333, 11.6666666667
20304, 10.0, -2.5, 11.6666666667
20305, 10.0, -1.66666666667, 11.6666666667
20306, 10.0, -0.833333333333, 11.6666666667
20307, 10.0, 0.0, 11.6666666667
20308, 10.0, 0.833333333333, 11.6666666667
20309, 10.0, 1.66666666667, 11.6666666667
20310, 10.0, 2.5, 11.6666666667
20311, 10.0, 3.33333333333, 11.6666666667
20312, 10.0, 4.16666666667, 11.6666666667
20313, 10.0, 5.0, 11.6666666667
** ... 87 like lines cut
*NODE, NSET=ND_PLATE
30201, 0.0, -5.0, 19.1666666667
30203, 0.0, -3.33333333333, 19.1666666667
30205, 0.0, -1.66666666667, 19.1666666667
30207, 0.0, 0.0, 19.1666666667
30209, 0.0, 1.66666666667, 19.1666666667
30211, 0.0, 3.33333333333, 19.1666666667
30213, 0.0, 5.0, 19.1666666667
30301, 0.0, -5.0, 18.3333333333
30302, 0.0, -4.16666666667, 18.3333333333
30303, 0.0, -3.33333333333, 18.3333333333
30304, 0.0, -2.5, 18.3333333333
30305, 0.0, -1.66666666667, 18.3333333333
30306, 0.0, -0.833333333333, 18.3333333333
30307, 0.0, 0.0, 18.3333333333
30308, 0.0, 0.833333333333, 18.3333333333
30309, 0.0, 1.66666666667, 18.3333333333
30310, 0.0, 2.5, 18.3333333333
30311, 0.0, 3.33333333333, 18.3333333333
30312, 0.0, 4.16666666667, 18.3333333333
30313, 0.0, 5.0, 18.3333333333
** ... 87 like lines cut
*NODE, NSET=NE_PLATE
40203, 0.833333333333, 5.0, 11.6666666667
40205, 0.833333333333, 5.0, 13.3333333333
40207, 0.833333333333, 5.0, 15.0
40209, 0.833333333333, 5.0, 16.6666666667
40211, 0.833333333333, 5.0, 18.3333333333
40302, 1.66666666667, 5.0, 10.8333333333
40303, 1.66666666667, 5.0, 11.6666666667
40304, 1.66666666667, 5.0, 12.5
40305, 1.66666666667, 5.0, 13.3333333333
40306, 1.66666666667, 5.0, 14.1666666667
40307, 1.66666666667, 5.0, 15.0
40308, 1.66666666667, 5.0, 15.8333333333
40309, 1.66666666667, 5.0, 16.6666666667
40310, 1.66666666667, 5.0, 17.5
40311, 1.66666666667, 5.0, 18.3333333333
40312, 1.66666666667, 5.0, 19.1666666667
40403, 2.5, 5.0, 11.6666666667
40405, 2.5, 5.0, 13.3333333333
40407, 2.5, 5.0, 15.0
40409, 2.5, 5.0, 16.6666666667
** ... 65 like lines cut
*NODE, NSET=NF_PLATE
50203, 1.66666666667, -5.0, 10.8333333333
50205, 3.33333333333, -5.0, 10.8333333333
50207, 5.0, -5.0, 10.8333333333
50209, 6.66666666667, -5.0, 10.8333333333
50211, 8.33333333333, -5.0, 10.8333333333
50302, 0.833333333333, -5.0, 11.6666666667
50303, 1.66666666667, -5.0, 11.6666666667
50304, 2.5, -5.0, 11.6666666667
50305, 3.33333333333, -5.0, 11.6666666667
50306, 4.16666666667, -5.0, 11.6666666667
50307, 5.0, -5.0, 11.6666666667
50308, 5.83333333333, -5.0, 11.6666666667
50309, 6.66666666667, -5.0, 11.6666666667
50310, 7.5, -5.0, 11.6666666667
50311, 8.33333333333, -5.0, 11.6666666667
50312, 9.16666666667, -5.0, 11.6666666667
50403, 1.66666666667, -5.0, 12.5
50405, 3.33333333333, -5.0, 12.5
50407, 5.0, -5.0, 12.5
50409, 6.66666666667, -5.0, 12.5
** ... 65 like lines cut
*NSET, NSET=NALL
NA_PLATE, NB_PLATE, NC_PLATE, ND_PLATE, NE_PLATE, NF_PLATE
********************************************************************************
*ELEMENT, TYPE=S8R, ELSET=SEL_101
101, 101, 301, 303, 103, 201, 302, 203, 102
*ELEMENT, TYPE=S8R, ELSET=SEL_102
102, 103, 303, 305, 105, 203, 304, 205, 104
*ELEMENT, TYPE=S8R, ELSET=SEL_103
103, 105, 305, 307, 107, 205, 306, 207, 106
*ELEMENT, TYPE=S8R, ELSET=SEL_104
104, 107, 307, 309, 109, 207, 308, 209, 108
*ELEMENT, TYPE=S8R, ELSET=SEL_105
105, 109, 309, 311, 111, 209, 310, 211, 110
*ELEMENT, TYPE=S8R, ELSET=SEL_106
106, 111, 311, 313, 113, 211, 312, 213, 112
*ELEMENT, TYPE=S8R, ELSET=SEL_201
201, 301, 501, 503, 303, 401, 502, 403, 302
*ELEMENT, TYPE=S8R, ELSET=SEL_202
202, 303, 503, 505, 305, 403, 504, 405, 304
*ELEMENT, TYPE=S8R, ELSET=SEL_203
203, 305, 505, 507, 307, 405, 506, 407, 306
*ELEMENT, TYPE=S8R, ELSET=SEL_204
204, 307, 507, 509, 309, 407, 508, 409, 308
*ELEMENT, TYPE=S8R, ELSET=SEL_205
205, 309, 509, 511, 311, 409, 510, 411, 310
*ELEMENT, TYPE=S8R, ELSET=SEL_206
206, 311, 511, 513, 313, 411, 512, 413, 312
*ELEMENT, TYPE=S8R, ELSET=SEL_301
301, 501, 701, 703, 503, 601, 702, 603, 502
*ELEMENT, TYPE=S8R, ELSET=SEL_302
302, 503, 703, 705, 505, 603, 704, 605, 504
*ELEMENT, TYPE=S8R, ELSET=SEL_303
303, 505, 705, 707, 507, 605, 706, 607, 506
*ELEMENT, TYPE=S8R, ELSET=SEL_304
304, 507, 707, 709, 509, 607, 708, 609, 508
*ELEMENT, TYPE=S8R, ELSET=SEL_305
305, 509, 709, 711, 511, 609, 710, 611, 510
*ELEMENT, TYPE=S8R, ELSET=SEL_306
306, 511, 711, 713, 513, 611, 712, 613, 512
*ELEMENT, TYPE=S8R, ELSET=SEL_401
401, 701, 901, 903, 703, 801, 902, 803, 702
*ELEMENT, TYPE=S8R, ELSET=SEL_402
402, 703, 903, 905, 705, 803, 904, 805, 704
** ... 392 like lines cut
*ELSET, ELSET=EALL
101, 102, 103, 104, 105, 106, 201, 202, 203, 204, 205, 206, 301, 302, 303, 304
305, 306, 401, 402, 403, 404, 405, 406, 501, 502, 503, 504, 505, 506, 601, 602
603, 604, 605, 606, 10101, 10102, 10103, 10104, 10105, 10106, 10201, 10202, 10203, 10204, 10205, 10206
10301, 10302, 10303, 10304, 10305, 10306, 10401, 10402, 10403, 10404, 10405, 10406, 10501, 10502, 10503, 10504
10505, 10506, 10601, 10602, 10603, 10604, 10605, 10606, 20101, 20102, 20103, 20104, 20105, 20106, 20201, 20202
20203, 20204, 20205, 20206, 20301, 20302, 20303, 20304, 20305, 20306, 20401, 20402, 20403, 20404, 20405, 20406
20501, 20502, 20503, 20504, 20505, 20506, 20601, 20602, 20603, 20604, 20605, 20606, 30101, 30102, 30103, 30104
30105, 30106, 30201, 30202, 30203, 30204, 30205, 30206, 30301, 30302, 30303, 30304, 30305, 30306, 30401, 30402
30403, 30404, 30405, 30406, 30501, 30502, 30503, 30504, 30505, 30506, 30601, 30602, 30603, 30604, 30605, 30606
40101, 40102, 40103, 40104, 40105, 40106, 40201, 40202, 40203, 40204, 40205, 40206, 40301, 40302, 40303, 40304
40305, 40306, 40401, 40402, 40403, 40404, 40405, 40406, 40501, 40502, 40503, 40504, 40505, 40506, 40601, 40602
40603, 40604, 40605, 40606, 50101, 50102, 50103, 50104, 50105, 50106, 50201, 50202, 50203, 50204, 50205, 50206
50301, 50302, 50303, 50304, 50305, 50306, 50401, 50402, 50403, 50404, 50405, 50406, 50501, 50502, 50503, 50504
50505, 50506, 50601, 50602, 50603, 50604, 50605, 50606
********************************************************************************
*MATERIAL, NAME=MAT
*DENSITY
0.000144
*ELASTIC, TYPE=ENGINEERING CONSTANTS
35000000.0, 35000000.0, 35000000.0, 0.3, 0.3, 0.3, 13461538.4615, 13461538.4615
13461538.4615
*SHELL SECTION, ELSET=EALL, MATERIAL=MAT
0.5
********************************************************************************
*BOUNDARY
101, 1
101, 2
101, 3
101, 4
101, 5
101, 6
********************************************************************************
***STEP, NLGEOM
*STEP
*STATIC
***CLOAD, OP=NEW
*CLOAD
10113, 1, 1000.0
***BOUNDARY, OP=NEW
**101, 1
**101, 2
**101, 3
**101, 4
**101, 5
**101, 6
********************************************************************************
*NODE PRINT, NSET=NALL
U, RF
***NODE FILE, OUTPUT=3D
*NODE FILE
U, RF
*EL PRINT, ELSET=EALL
S
***EL FILE, OUTPUT=3D
*EL FILE
S
*END STEP
********************************************************************************
********************************************************************************
***STEP, NLGEOM
*STEP
*STATIC
***CLOAD, OP=NEW
*CLOAD
10113, 2, 1000.0
***BOUNDARY, OP=NEW
**101, 1
**101, 2
**101, 3
**101, 4
**101, 5
**101, 6
********************************************************************************
*NODE PRINT, NSET=NALL
U, RF
***NODE FILE, OUTPUT=3D
*NODE FILE
U, RF
*EL PRINT, ELSET=EALL
S
***EL FILE, OUTPUT=3D
*EL FILE
S
*END STEP
********************************************************************************
********************************************************************************
***STEP, NLGEOM
*STEP
*STATIC
***CLOAD, OP=NEW
*CLOAD
10113, 3, 1000.0
***BOUNDARY, OP=NEW
**101, 1
**101, 2
**101, 3
**101, 4
**101, 5
**101, 6
********************************************************************************
*NODE PRINT, NSET=NALL
U, RF
***NODE FILE, OUTPUT=3D
*NODE FILE
U, RF
*EL PRINT, ELSET=EALL
S
***EL FILE, OUTPUT=3D
*EL FILE
S
*END STEP
********************************************************************************

