*Heading
** Job name: buckling_Case2 Model name: Model-1
** Generated by: Abaqus/CAE 6.12-3
*Node,NSET= NALL
      1,         100.,         100.,           0.
      2,          75.,         100.,           0.
      3,          50.,         100.,           0.
      4,          25.,         100.,           0.
      5,           0.,         100.,           0.
      6,         -25.,         100.,           0.
      7,         -50.,         100.,           0.
      8,         -75.,         100.,           0.
      9,        -100.,         100.,           0.
     10,         100.,          75.,           0.
     11,          75.,          75.,           0.
     12,          50.,          75.,           0.
     13,          25.,          75.,           0.
     14,           0.,          75.,           0.
     15,         -25.,          75.,           0.
     16,         -50.,          75.,           0.
     17,         -75.,          75.,           0.
     18,        -100.,          75.,           0.
     19,         100.,          50.,           0.
     20,          75.,          50.,           0.
** ... 61 like lines cut
*Element, type=S4R,ELSET=Eall
 1,  1,  2, 11, 10
 2,  2,  3, 12, 11
 3,  3,  4, 13, 12
 4,  4,  5, 14, 13
 5,  5,  6, 15, 14
 6,  6,  7, 16, 15
 7,  7,  8, 17, 16
 8,  8,  9, 18, 17
 9, 10, 11, 20, 19
10, 11, 12, 21, 20
11, 12, 13, 22, 21
12, 13, 14, 23, 22
13, 14, 15, 24, 23
14, 15, 16, 25, 24
15, 16, 17, 26, 25
16, 17, 18, 27, 26
17, 19, 20, 29, 28
18, 20, 21, 30, 29
19, 21, 22, 31, 30
20, 22, 23, 32, 31
** ... 44 like lines cut
*Nset, nset=bottom
 77,
*Nset, nset=right
 37,
*Nset, nset=top
 5,
*Nset, nset=left
 45,
*Nset, nset=allnodes
  1,  2,  3,  4,  5,  6,  7,  8,  9, 10, 18, 19, 27, 28, 36, 37
 45, 46, 54, 55, 63, 64, 72, 73, 74, 75, 76, 77, 78, 79, 80, 81
*Nset, nset=top-force
 1,  9,  1
*Nset, nset=bottom-froce
 73,  81,   1
*Material, name=Aluminium
*Elastic
70000., 0.3
*Shell Section, elset=EALL, material=Aluminium
2., 5
** BOUNDARY CONDITIONS
** 
** Name: allnodes Type: Displacement/Rotation
*Boundary
allnodes, 3, 3
** Name: bottom Type: Displacement/Rotation
*Boundary
bottom, 1, 1
** Name: left Type: Displacement/Rotation
*Boundary
left, 1, 1
** Name: right Type: Displacement/Rotation
*Boundary
right, 2, 2
** Name: top Type: Displacement/Rotation
*Boundary
top, 2, 2
*Step
*Buckle
70
*Cload
top, 2, -44.44
*Cload
bottom, 2, 44.44  
*NODE PRINT,NSET=NALL,FREQUENCY=10
U
*EL PRINT,ELSET=EALL
S
*END STEP

