*NODE, NSET=Nall
       1,6.000000000000e+001,0.000000000000e+000,0.000000000000e+000
       2,5.000000000000e+001,0.000000000000e+000,0.000000000000e+000
       3,5.000000000000e+001,0.000000000000e+000,1.000000000000e+001
       4,6.000000000000e+001,0.000000000000e+000,1.000000000000e+001
       5,6.000000000000e+001,1.000000000000e+001,0.000000000000e+000
       6,5.000000000000e+001,1.000000000000e+001,0.000000000000e+000
       7,5.000000000000e+001,1.000000000000e+001,1.000000000000e+001
       8,6.000000000000e+001,1.000000000000e+001,1.000000000000e+001
       9,5.000000000000e+001,0.000000000000e+000,2.000000000000e+001
      10,6.000000000000e+001,0.000000000000e+000,2.000000000000e+001
      11,5.000000000000e+001,1.000000000000e+001,2.000000000000e+001
      12,6.000000000000e+001,1.000000000000e+001,2.000000000000e+001
      13,5.000000000000e+001,0.000000000000e+000,3.000000000000e+001
      14,6.000000000000e+001,0.000000000000e+000,3.000000000000e+001
      15,5.000000000000e+001,1.000000000000e+001,3.000000000000e+001
      16,6.000000000000e+001,1.000000000000e+001,3.000000000000e+001
      17,5.000000000000e+001,0.000000000000e+000,4.000000000000e+001
      18,6.000000000000e+001,0.000000000000e+000,4.000000000000e+001
      19,5.000000000000e+001,1.000000000000e+001,4.000000000000e+001
      20,6.000000000000e+001,1.000000000000e+001,4.000000000000e+001
** ... 1224 like lines cut
*ELEMENT, TYPE=C3D8, ELSET=Eall
     1,     1,     2,     3,     4,     5,     6,     7,     8
     2,     4,     3,     9,    10,     8,     7,    11,    12
     3,    10,     9,    13,    14,    12,    11,    15,    16
     4,    14,    13,    17,    18,    16,    15,    19,    20
     5,    18,    17,    21,    22,    20,    19,    23,    24
     6,    22,    21,    25,    26,    24,    23,    27,    28
     7,    26,    25,    29,    30,    28,    27,    31,    32
     8,    30,    29,    33,    34,    32,    31,    35,    36
     9,    34,    33,    37,    38,    36,    35,    39,    40
    10,    38,    37,    41,    42,    40,    39,    43,    44
    11,    42,    41,    45,    46,    44,    43,    47,    48
    12,    46,    45,    49,    50,    48,    47,    51,    52
    13,    50,    49,    53,    54,    52,    51,    55,    56
    14,    54,    53,    57,    58,    56,    55,    59,    60
    15,    58,    57,    61,    62,    60,    59,    63,    64
    16,    62,    61,    65,    66,    64,    63,    67,    68
    17,    66,    65,    69,    70,    68,    67,    71,    72
    18,    70,    69,    73,    74,    72,    71,    75,    76
    19,    74,    73,    77,    78,    76,    75,    79,    80
    20,    78,    77,    81,    82,    80,    79,    83,    84
** ... 496 like lines cut

** Names based on bound_01
*NSET,NSET=Nbound_01 
1, 
2, 
5, 
6, 
165, 
167, 
247, 
249, 
329, 
331, 
411, 
413, 
493, 
495,

** Surfaces based on bound_01
*SURFACE, NAME=Sbound_01
1, S3
41, S3
81, S3
121, S3
161, S3
201, S3

** Names based on bound_02
*NSET,NSET=Nbound_02 
161, 
162, 
163, 
164, 
245, 
246, 
327, 
328, 
409, 
410, 
491, 
492, 
573, 
574, 

** Surfaces based on bound_02
*SURFACE, NAME=Sbound_02
40, S5
80, S5
120, S5
160, S5
200, S5
240, S5

** Names based on bound_03
*NSET,NSET=Nbound_03 
575, 
576, 
579, 
580, 
739, 
741, 
821, 
823, 
903, 
905, 
985, 
987, 
1067, 
1069, 

** Surfaces based on bound_03
*SURFACE, NAME=Sbound_03
241, S3
281, S3
321, S3
361, S3
401, S3
441, S3

** Names based on bound_04
*NSET,NSET=Nbound_04 
735, 
736, 
737, 
738, 
819, 
820, 
901, 
902, 
983, 
984, 
1065, 
1066, 
1147, 
1148, 

** Surfaces based on bound_04
*SURFACE, NAME=Sbound_04
280, S5
320, S5
360, S5
400, S5
440, S5
480, S5

*NODE, NSET=Nrefnode
5001,30,5,0
5002,30,5,400
5003,30,105,0
5504,30,105,400

*NSET,NSET=Nrefnode_01
5001

*NSET,NSET=Nrefnode_02
5002

*NSET,NSET=Nrefnode_03
5003

*NSET,NSET=Nrefnode_04
5004

*MATERIAL, Name=steel

*ELASTIC
210000, 0.3

*DENSITY
7.85E-9

*SOLID SECTION, Elset=Eall, Material=steel

*COUPLING,REF NODE=5001,SURFACE=Sbound_01,CONSTRAINT NAME=CN1
*DISTRIBUTING
1,1
2,2
3,3
4,4
5,5
6,6

*COUPLING,REF NODE=5002,SURFACE=Sbound_02,CONSTRAINT NAME=CN2
*DISTRIBUTING
1,1
2,2
3,3
4,4
5,5
6,6

*COUPLING,REF NODE=5003,SURFACE=Sbound_03,CONSTRAINT NAME=CN3
*DISTRIBUTING
1,1
2,2
3,3
4,4
5,5
6,6

*COUPLING,REF NODE=5004,SURFACE=Sbound_04,CONSTRAINT NAME=CN4
*DISTRIBUTING
1,1
2,2
3,3
4,4
5,5
6,6

*ELEMENT, TYPE=T3D2, Elset=Etruss
1001,    322, 827
*SOLID SECTION, Elset=Etruss, Material=steel
150

*STEP, NLGEOM

*STATIC

*BOUNDARY
**Nbound01,1,3
**Nbound02,1,3
**Nbound03,1,3
**Nbound04,1,3

Nrefnode_01,1,3,0
Nrefnode_01,6,6,0
Nrefnode_02,1,2,0
Nrefnode_02,6,6,0
Nrefnode_03,1,3,0
Nrefnode_03,6,6,0
Nrefnode_04,1,2,0
Nrefnode_04,6,6,0

***CLOAD
**Nrefnode_02,3,-1000
**Nrefnode_04,3,-1000

*DLOAD
Eall,GRAV,9810.,1,0.,0.

*NODE FILE, OUTPUT=3D
U

*EL FILE
S, PEEQ

*END STEP