**
** ABAQUS Input Deck Generated by HyperMesh Version  : 13.0.110.31
** Generated using HyperMesh-Abaqus Template Version : 13.0.110
**
**   Template:  ABAQUS/STANDARD 3D
**
*NODE
         1,  35.0           ,  5.0            ,  25.0           
         2,  32.5           ,  5.0            ,  25.0           
         3,  30.0           ,  5.0            ,  25.0           
         4,  27.5           ,  5.0            ,  25.0           
         5,  25.0           ,  5.0            ,  25.0           
         6,  25.0           ,  5.0            ,  27.5           
         7,  25.0           ,  5.0            ,  30.0           
         8,  25.0           ,  5.0            ,  32.5           
         9,  25.0           ,  5.0            ,  35.0           
        10,  27.5           ,  5.0            ,  35.0           
        11,  30.0           ,  5.0            ,  35.0           
        12,  32.5           ,  5.0            ,  35.0           
        13,  35.0           ,  5.0            ,  35.0           
        14,  35.0           ,  5.0            ,  32.5           
        15,  35.0           ,  5.0            ,  30.0           
        16,  35.0           ,  5.0            ,  27.5           
        17,  30.0           ,  5.0            ,  32.5           
        18,  30.0           ,  5.0            ,  30.0           
        19,  30.0           ,  5.0            ,  27.5           
        20,  27.5           ,  5.0            ,  30.0           
** ... 5066 like lines cut
**HWCOLOR COMP          1    10
*ELEMENT,TYPE=C3D8R,ELSET=balken
      4480,      1519,      1682,      3082,      3079,      1523,      1686,      3086,
      3083
      4479,      1515,      1678,      3078,      3075,      1519,      1682,      3082,
      3079
      4478,      1511,      1674,      3074,      3071,      1515,      1678,      3078,
      3075
      4477,      1507,      1670,      3070,      3067,      1511,      1674,      3074,
      3071
      4476,      1503,      1666,      3066,      3063,      1507,      1670,      3070,
      3067
      4475,      1499,      1662,      3062,      3059,      1503,      1666,      3066,
      3063
      4474,      1495,      1658,      3058,      3055,      1499,      1662,      3062,
      3059
      4473,      1491,      1654,      3054,      3051,      1495,      1658,      3058,
      3055
      4472,      1487,      1650,      3050,      3047,      1491,      1654,      3054,
      3051
      4471,       562,       570,       572,       561,      1487,      1650,      3050,
      3047
** ... 7980 like lines cut
**HWCOLOR COMP          2    10
*ELEMENT,TYPE=C3D8R,ELSET=Bauteil2
        17,        18,        17,        21,        20,        26,        29,        28,
        27
        18,        26,        29,        28,        27,        30,        33,        32,
        31
        19,        30,        33,        32,        31,        34,        37,        36,
        35
        20,        34,        37,        36,        35,        38,        41,        40,
        39
        21,        22,        20,         7,         6,        42,        27,        44,
        43
        22,        42,        27,        44,        43,        45,        31,        47,
        46
        23,        45,        31,        47,        46,        48,        35,        50,
        49
        24,        48,        35,        50,        49,        51,        39,        53,
        52
        25,         4,        22,         6,         5,        54,        42,        43,
        55
        26,        54,        42,        43,        55,        56,        45,        46,
        57
** ... 108 like lines cut
**HM_PROP_ID          1
**HM_comp_by_property "property1"    11
*SOLID SECTION, ELSET=balken, MATERIAL=mat
**HM_PROP_ID          1
**HM_comp_by_property "property1"    11
*SOLID SECTION, ELSET=Bauteil2, MATERIAL=mat
**HMNAME MATS          1 mat    11
*MATERIAL, NAME=mat
*DENSITY
7.8000E-09,0.0       
*ELASTIC, TYPE = ISOTROPIC
210000.0  ,0.3       ,0.0       
**HMNAME PROPERTY          2 sint
*SURFACE INTERACTION, NAME = sint
*SURFACE BEHAVIOR, PRESSURE-OVERCLOSURE = LINEAR
10000000.0,
**HMNAME GROUPS          3 cp
*CONTACT PAIR, INTERACTION=sint, TYPE=SURFACE TO SURFACE
sb, sw
*SURFACE, NAME = sw, TYPE = ELEMENT
        21, S5   
        25, S5   
        44, S5   
        22, S5   
        23, S5   
        24, S5   
        26, S5   
        27, S5   
        28, S5   
        37, S5   
        43, S5   
        38, S5   
        39, S5   
        40, S5   
        41, S5   
        42, S5   
*SURFACE, NAME = sb, TYPE = ELEMENT
       721, S1   
      1281, S1   
      4471, S1   
      4461, S1   
      2521, S1   
      2131, S1   
      2531, S1   
       551, S1   
      4451, S1   
       601, S1   
      4441, S1   
      4431, S1   
       691, S1   
      1521, S1   
      1261, S1   
      4421, S1   
      1681, S1   
      1561, S1   
      4411, S1   
      4401, S1   
** ... 380 like lines cut
*AMPLITUDE, NAME =amp, DEFINITION = TABULAR
0.0       ,0.0       
0.5       ,1.0       
**HMNAME CURVE          1 amp
**HMNAME LOADSTEP          1 step
*STEP, INC =         1000
*DYNAMIC
1.0000E-03,0.5       ,          ,          
**HWNAME LOADCOL          1 bcw
**HWCOLOR LOADCOL          1    11
*BOUNDARY
         1,2, ,0.0
        13,2, ,0.0
        14,2, ,0.0
        15,2, ,0.0
        16,2, ,0.0
        82,2, ,0.0
        85,2, ,0.0
        86,2, ,0.0
        89,2, ,0.0
        90,2, ,0.0
        93,2, ,0.0
        94,2, ,0.0
        97,2, ,0.0
        98,2, ,0.0
       101,2, ,0.0
       102,2, ,0.0
       105,2, ,0.0
       106,2, ,0.0
       109,2, ,0.0
       110,2, ,0.0
** ... 5 like lines cut
**HWNAME LOADCOL          5 dynbc
**HWCOLOR LOADCOL          5    11
*BOUNDARY, AMPLITUDE = amp
       125,3, ,20.0           
       124,3, ,20.0           
       123,3, ,20.0           
       122,3, ,20.0           
       113,3, ,20.0           
       110,3, ,20.0           
       109,3, ,20.0           
       106,3, ,20.0           
       105,3, ,20.0           
       102,3, ,20.0           
       101,3, ,20.0           
        98,3, ,20.0           
        97,3, ,20.0           
        94,3, ,20.0           
        93,3, ,20.0           
        90,3, ,20.0           
        89,3, ,20.0           
        86,3, ,20.0           
        85,3, ,20.0           
        82,3, ,20.0           
** ... 5 like lines cut
**HWNAME LOADCOL          3 cload
**HWCOLOR LOADCOL          3    11
*CLOAD
         1,1,-10.0          
        13,1,-10.0          
        14,1,-10.0          
        15,1,-10.0          
        16,1,-10.0          
        82,1,-10.0          
        85,1,-10.0          
        86,1,-10.0          
        89,1,-10.0          
        90,1,-10.0          
        93,1,-10.0          
        94,1,-10.0          
        97,1,-10.0          
        98,1,-10.0          
       101,1,-10.0          
       102,1,-10.0          
       105,1,-10.0          
       106,1,-10.0          
       109,1,-10.0          
       110,1,-10.0          
** ... 5 like lines cut
**HWNAME LOADCOL          4 bcb
**HWCOLOR LOADCOL          4    11
*BOUNDARY
       613,1,3,0.0
       614,1,3,0.0
       615,1,3,0.0
       616,1,3,0.0
       653,1,3,0.0
       654,1,3,0.0
       655,1,3,0.0
       656,1,3,0.0
       693,1,3,0.0
       694,1,3,0.0
       695,1,3,0.0
       696,1,3,0.0
       733,1,3,0.0
       734,1,3,0.0
       735,1,3,0.0
       736,1,3,0.0
       773,1,3,0.0
       774,1,3,0.0
       775,1,3,0.0
       776,1,3,0.0
** ... 431 like lines cut
*NODE FILE
U,
*EL FILE
S,
E,
*END STEP
*****
