*HEADING
ABAQUS job created on 16-Jun-11 at 10:36:17
**
*NODE
       1,            0.,            1.
       2,            0.,          0.75
       3,            0.,           0.5
       4,            0.,          0.25
       5,            0.,            0.
       6,          0.25,            1.
       7,      0.250002,          0.75
       8,      0.250002,           0.5
       9,      0.250004,          0.25
      10,      0.250004,            0.
      11,           0.5,            1.
      12,      0.500002,          0.75
      13,      0.500002,           0.5
      14,      0.500004,          0.25
      15,      0.500004,            0.
      16,          0.75,            1.
      17,      0.750002,          0.75
      18,      0.750002,           0.5
      19,      0.750003,          0.25
      20,      0.750003,            0.
** ... 2140 like lines cut
**
**
*ELEMENT, TYPE=C3D8, ELSET=BEAM_CANTI
       1,       1,       2,       7,       6,     206,     207,
     212,     211
       2,       2,       3,       8,       7,     207,     208,
     213,     212
       3,       3,       4,       9,       8,     208,     209,
     214,     213
       4,       4,       5,      10,       9,     209,     210,
     215,     214
       5,       6,       7,      12,      11,     211,     212,
     217,     216
       6,       7,       8,      13,      12,     212,     213,
     218,     217
       7,       8,       9,      14,      13,     213,     214,
     219,     218
       8,       9,      10,      15,      14,     214,     215,
     220,     219
       9,      11,      12,      17,      16,     216,     217,
     222,     221
      10,      12,      13,      18,      17,     217,     218,
     223,     222
** ... 2540 like lines cut
*ELEMENT, TYPE=C3D8, ELSET=BULLET
    1281,    1866,    1869,    1870,    1867,    1894,    1891,
    1892,    1893
    1282,    1860,    1866,    1867,    1863,    1896,    1894,
    1893,    1895
    1283,    1855,    1860,    1863,    1857,    1898,    1896,
    1895,    1897
    1284,    1850,    1855,    1857,    1851,    1900,    1898,
    1897,    1899
    1285,    1864,    1868,    1869,    1866,    1902,    1901,
    1891,    1894
    1286,    1859,    1864,    1866,    1860,    1903,    1902,
    1894,    1896
    1287,    1854,    1859,    1860,    1855,    1904,    1903,
    1896,    1898
    1288,    1848,    1854,    1855,    1850,    1905,    1904,
    1898,    1900
    1289,    1861,    1865,    1868,    1864,    1907,    1906,
    1901,    1902
    1290,    1856,    1861,    1864,    1859,    1908,    1907,
    1902,    1903
** ... 364 like lines cut
**
** contact_region
**
*elset,elset=contact_bullet
     1357,    1376,    1389,     1408
**
**
*ELSET, ELSET=CONTACT_beam
     605,     609,     765,     769
*surface,name=bullet_head
1357,s4
1376,s6
1389,s4
1408,s6
*surface,name=beam_face
605,s6
609,s6
765,s6
769,s6   
** ball
**
*ELSET, ELSET=BALL, GENERATE
    1281,    1472,       1
**
** beam_canti
**
*SOLID SECTION, ELSET=BEAM_CANTI, MATERIAL=STEEL
          1.,
**
** bullet
**
*SOLID SECTION, ELSET=BULLET, MATERIAL=STEEL
          1.,
**
** steel
** Date: 16-Jun-11           Time: 10:34:57
**
*MATERIAL, NAME=STEEL
**
*DENSITY
      400.,
**
*ELASTIC, TYPE=ISO
      5.E+11,         0.3
**
*surface interaction, name=hit
*friction
0.01,
*contact pair,interaction=hit
bullet_head,beam_face
**
*initial conditions,type=temperature
233
** Step  
** LoadCase, Default
**
*STEP
**
This load case is the default load case that always appears
**
*dynamic,ALPHA=-0.3,explicit=3
1E-8,1e-1
*NSET, NSET=FIX_END, GENERATE
       1,       5,       1
     206,     210,       1
     411,     415,       1
     616,     620,       1
     821,     825,       1
    1026,    1030,       1
    1231,    1235,       1
    1436,    1440,       1
    1641,    1645,       1
*NSET, NSET=SHOOT, GENERATE
    1846,    2160,       1
**
**
** fix_end
**
*BOUNDARY, OP=NEW
FIX_END, 1,,          0.
FIX_END, 2,,          0.
FIX_END, 3,,          0.
**
** shoot
**
*BOUNDARY, OP=NEW, TYPE=VELOCITY
SHOOT, 2,,        -100.
**
*CLOAD, OP=NEW
*DLOAD, OP=NEW
*TEMPERATURE, OP=NEW
**
*OUTPUT, FIELD, FREQ=1
*NODE OUTPUT
U,
V,
RF,
*OUTPUT, FIELD, FREQ=1
*contact OUTPUT
cforce,
**
** ELEMENT OUTPUT REQUESTS
**
*OUTPUT, FIELD, FREQ=1
*ELEMENT OUTPUT
S,
E,
pe,
** MODAL OUTPUT REQUESTS
*OUTPUT, history, FREQ=10
*energy OUTPUT
allcw,
allpw,
etotal,
** NONE
**
**
*END STEP