*HEADING
Model: cantilever beam
*NODE
      1, -0.0206761379, -0.0170000009,           1.
      2, -0.0206761379, 0.00800000038,           1.
      3, -0.0206761379, 0.0329999998,           1.
      4, -0.0206761379, -0.0170000009,  0.975000024
      5, -0.0206761379, 0.00800000038,  0.975000024
      6, -0.0206761379, 0.0329999998,  0.975000024
      7, -0.0206761379, -0.0170000009,  0.949999988
      8, -0.0206761379, 0.00800000038,  0.949999988
      9, -0.0206761379, 0.0329999998,  0.949999988
     10, -0.0206761379, -0.0170000009,  0.925000012
     11, -0.0206761379, 0.00800000038,  0.925000012
     12, -0.0206761379, 0.0329999998,  0.925000012
     13, -0.0206761379, -0.0170000009,  0.899999976
     14, -0.0206761379, 0.00800000038,  0.899999976
     15, -0.0206761379, 0.0329999998,  0.899999976
     16, -0.0206761379, -0.0170000009,        0.875
     17, -0.0206761379, 0.00800000038,        0.875
     18, -0.0206761379, 0.0329999998,        0.875
     19, -0.0206761379, -0.0170000009,  0.850000024
     20, -0.0206761379, 0.00800000038,  0.850000024
** ... 349 like lines cut
*ELEMENT, TYPE=C3D8R
  1, 124, 125, 128, 127,   1,   2,   5,   4
  2, 125, 126, 129, 128,   2,   3,   6,   5
  3, 127, 128, 131, 130,   4,   5,   8,   7
  4, 128, 129, 132, 131,   5,   6,   9,   8
  5, 130, 131, 134, 133,   7,   8,  11,  10
  6, 131, 132, 135, 134,   8,   9,  12,  11
  7, 133, 134, 137, 136,  10,  11,  14,  13
  8, 134, 135, 138, 137,  11,  12,  15,  14
  9, 136, 137, 140, 139,  13,  14,  17,  16
 10, 137, 138, 141, 140,  14,  15,  18,  17
 11, 139, 140, 143, 142,  16,  17,  20,  19
 12, 140, 141, 144, 143,  17,  18,  21,  20
 13, 142, 143, 146, 145,  19,  20,  23,  22
 14, 143, 144, 147, 146,  20,  21,  24,  23
 15, 145, 146, 149, 148,  22,  23,  26,  25
 16, 146, 147, 150, 149,  23,  24,  27,  26
 17, 148, 149, 152, 151,  25,  26,  29,  28
 18, 149, 150, 153, 152,  26,  27,  30,  29
 19, 151, 152, 155, 154,  28,  29,  32,  31
 20, 152, 153, 156, 155,  29,  30,  33,  32
** ... 140 like lines cut
**
*ELSET, ELSET=ALL_ELEMENTS, GENERATE
1,160
*NSET, NSET=FORCE_APPLICATION_NODE
243
*NSET, NSET=FIXED_END
1,2,3,124,125,126,247,248,249
**
*MATERIAL, NAME=steel
*ELASTIC
2.1e+11, 0.3
*SOLID SECTION, ELSET=ALL_ELEMENTS, MATERIAL=steel
**
*BOUNDARY
FIXED_END, 1, 3
**
*STEP
*STATIC, DIRECT
.1,1.
**
*CLOAD
FORCE_APPLICATION_NODE, 2, -5000.
**
*NODE FILE
U
*EL FILE
S
**
*END STEP
