
***********************************************************************
**                      	UNITS
**   		Length(mm), Time (s), Mass (t), Force(N)
**		     Temp(K), Density(10**3*KG/mm**3)	
**            mm, s, t, N, MPa, mm/s, t, mm**3, mJ, 9810.
***********************************************************************
**

***********************************************************************
*NODE, NSET=Nall
       1,1.464466094070e+000,3.535533905930e+000,0.000000000000e+000
       2,1.197970172002e+000,3.247240241648e+000,0.000000000000e+000
       3,1.119878139855e+000,3.247240241648e+000,-1.132785531971e+000
       4,1.372566129881e+000,3.535533905930e+000,-1.167699760237e+000
       5,1.568019484663e+000,3.431980515337e+000,0.000000000000e+000
       6,1.328173154802e+000,3.147516217484e+000,0.000000000000e+000
       7,1.247380510538e+000,3.147516217484e+000,-1.152508317292e+000
       8,1.474844606398e+000,3.431980515337e+000,-1.183899079497e+000
       9,8.638106671351e-001,3.247240241648e+000,-2.237382523396e+000
      10,1.099129119430e+000,3.535533905930e+000,-2.306646877003e+000
      11,9.857617535245e-001,3.147516217484e+000,-2.276341974898e+000
      12,1.197614246337e+000,3.431980515337e+000,-2.338646634522e+000
      13,4.363685861098e-001,3.247240241648e+000,-3.286296529148e+000
      14,6.508879893992e-001,3.535533905930e+000,-3.388796692336e+000
      15,5.500258760818e-001,3.147516217484e+000,-3.343578858021e+000
      16,7.431547360194e-001,3.431980515337e+000,-3.435808947881e+000
      17,-1.516274593371e-001,3.247240241648e+000,-4.253404204010e+000
      18,3.887992403821e-002,3.535533905930e+000,-4.387503086332e+000
      19,-4.883657348913e-002,3.147516217484e+000,-4.327687274397e+000
      20,1.226563768531e-001,3.431980515337e+000,-4.448370242147e+000
** ... 18082 like lines cut
*ELEMENT, TYPE=C3D8R, ELSET=Eall
     1,     1,     2,     3,     4,     5,     6,     7,     8
     2,     4,     3,     9,    10,     8,     7,    11,    12
     3,    10,     9,    13,    14,    12,    11,    15,    16
     4,    14,    13,    17,    18,    16,    15,    19,    20
     5,    18,    17,    21,    22,    20,    19,    23,    24
     6,    22,    21,    25,    26,    24,    23,    27,    28
     7,    26,    25,    29,    30,    28,    27,    31,    32
     8,    30,    29,    33,    34,    32,    31,    35,    36
     9,    34,    33,    37,    38,    36,    35,    39,    40
    10,    38,    37,    41,    42,    40,    39,    43,    44
    11,     5,     6,     7,     8,    45,    46,    47,    48
    12,     8,     7,    11,    12,    48,    47,    49,    50
    13,    12,    11,    15,    16,    50,    49,    51,    52
    14,    16,    15,    19,    20,    52,    51,    53,    54
    15,    20,    19,    23,    24,    54,    53,    55,    56
    16,    24,    23,    27,    28,    56,    55,    57,    58
    17,    28,    27,    31,    32,    58,    57,    59,    60
    18,    32,    31,    35,    36,    60,    59,    61,    62
    19,    36,    35,    39,    40,    62,    61,    63,    64
    20,    40,    39,    43,    44,    64,    63,    65,    66
** ... 15980 like lines cut
***
** Names based on fix_x
*NSET,NSET=Nfix_x 
4778, 
4779, 
4780, 
4781, 
4800, 
4801, 
4820, 
4821, 
4840, 
4841, 
4860, 
4861, 
4880, 
4881, 
4900, 
4901, 
4920, 
4921, 
4940, 
4941, 
** ... 411 like lines cut
***
** Names based on fix_y
*NSET,NSET=Nfix_y 
1211, 
1212, 
1213, 
1214, 
1215, 
1216, 
1217, 
1218, 
1219, 
1220, 
1221, 
1222, 
1223, 
1224, 
1225, 
1226, 
1227, 
1228, 
1229, 
1230, 
** ... 1062 like lines cut
***
** Names based on fix_z
*NSET,NSET=Nfix_z 
1, 
2, 
5, 
6, 
45, 
46, 
67, 
68, 
89, 
90, 
111, 
112, 
133, 
134, 
155, 
156, 
177, 
178, 
199, 
200, 
** ... 1062 like lines cut
***
** Surfaces based on slave
*SURFACE, NAME=Sslave
8001, S1
8101, S1
8002, S1
8102, S1
8003, S1
8103, S1
8004, S1
8104, S1
8005, S1
8105, S1
8006, S1
8106, S1
8007, S1
8107, S1
8008, S1
8108, S1
8009, S1
8109, S1
8010, S1
8110, S1
** ... 180 like lines cut
***
** Surfaces based on master
*SURFACE, NAME=Smaster
1, S1
101, S1
2, S1
102, S1
3, S1
103, S1
4, S1
104, S1
5, S1
105, S1
6, S1
106, S1
7, S1
107, S1
8, S1
108, S1
9, S1
109, S1
10, S1
110, S1
** ... 180 like lines cut

***********************************************************************
*BOUNDARY
Nfix_x, 1,1, 0.
Nfix_y, 2,2, 0.
Nfix_z, 3,3, 0.

***********************************************************************
*CONTACT PAIR, INTERACTION=contact1,TYPE=SURFACE TO SURFACE
Sslave, Smaster
*SURFACE INTERACTION, NAME=contact1
*SURFACE BEHAVIOR,PRESSURE-OVERCLOSURE=LINEAR
1.e6
**FRICTION
**0.12,2.e4

*TIE, NAME=T1, POSITION TOLERANCE=0.01
Sslave, Smaster

***********************************************************************
*MATERIAL, NAME=M1.4401
*ELASTIC
196000., 0.3
*PLASTIC,HARDENING=ISOTROPIC
220., 0.002
670., 0.45
*SOLID SECTION, ELSET=Eall, MATERIAL=M1.4401

***********************************************************************
*STEP,NLGEOM
*STATIC,SOLVER=PARDISO
.1, 1.,1e-5,.1

***********************************************************************
**BOUNDARY
**Nload,1,1,.5
*DLOAD
** Pressure based on load
12010, P5, -124.86
12110, P5, -124.86
16000, P5, -124.86
12020, P5, -124.86
12120, P5, -124.86
15900, P5, -124.86
12030, P5, -124.86
12130, P5, -124.86
15800, P5, -124.86
12040, P5, -124.86
12140, P5, -124.86
15700, P5, -124.86
12050, P5, -124.86
12150, P5, -124.86
15600, P5, -124.86
12060, P5, -124.86
12160, P5, -124.86
15500, P5, -124.86
12070, P5, -124.86
12170, P5, -124.86
** ... 380 like lines cut

***********************************************************************
*NODE FILE
U

*NODE PRINT, NSET=Nfix_x, TOTALS=ONLY
RF

***********************************************************************
*EL FILE
S, E, PEEQ

*CONTACT FILE
CSTR

*END STEP
