*node, nset=Nall
1, 1.000000e+00, 1.000000e+00, 5.000000e+00
2, 1.000000e+00, 1.000000e+00, 0.000000e+00
3, 1.000000e+00, 1.000000e+00, 1.000000e+01
4, 1.000000e+00, 0.000000e+00, 1.000000e+01
5, 1.000000e+00, 0.000000e+00, 0.000000e+00
6, 0.000000e+00, 1.000000e+00, 5.000000e+00
7, 0.000000e+00, 1.000000e+00, 0.000000e+00
8, 0.000000e+00, 1.000000e+00, 1.000000e+01
9, 0.000000e+00, 0.000000e+00, 0.000000e+00
10, 0.000000e+00, 0.000000e+00, 1.000000e+01
11, 1.000000e+00, 2.000000e+00, 5.000000e+00
12, 1.000000e+00, 2.000000e+00, 0.000000e+00
13, 0.000000e+00, 2.000000e+00, 5.000000e+00
14, 0.000000e+00, 2.000000e+00, 0.000000e+00
15, 1.000000e+00, 0.000000e+00, 2.500000e-01
16, 1.000000e+00, 0.000000e+00, 5.000000e-01
17, 1.000000e+00, 0.000000e+00, 7.500000e-01
18, 1.000000e+00, 0.000000e+00, 1.000000e+00
19, 1.000000e+00, 0.000000e+00, 1.250000e+00
20, 1.000000e+00, 0.000000e+00, 1.500000e+00
** ... 9146 like lines cut
*nset, nset=fix
9, 57, 1458, 58, 1459, 59, 1460, 
1461, 2604, 502, 2605, 2606, 503, 2607, 2608, 
2609, 504, 2610, 2611, 2612, 2613, 505, 2614, 
2615, 2616, 506, 2617, 2618, 2619, 507, 2620, 
2621, 2622, 2623, 2624, 508, 2625, 2626, 2627, 
2628, 2629, 2630, 2631, 2632, 509, 2633, 2634, 
2635, 2636, 2637, 2638, 2639, 2640, 221, 1638, 
222, 1639, 223, 1640, 1641, 98, 1502, 99, 
1503, 100, 1504, 1505, 196, 1610, 197, 1611, 
198, 1612, 1613, 148, 1558, 149, 1559, 150, 
1560, 1561, 145, 1554, 146, 1555, 147, 1556, 
1557, 14, 2, 12, 5, 249, 1670, 250, 
1671, 251, 1672, 1673, 7, 4112, 902, 4113, 
4114, 903, 4115, 4116, 4117, 904, 4118, 4119, 
4120, 4121, 905, 4122, 4123, 4124, 906, 4125, 
4126, 4127, 907, 4128, 4129, 4130, 4131, 4132, 
908, 4133, 4134, 4135, 4136, 4137, 4138, 4139, 
4140, 909, 4141, 4142, 4143, 4144, 4145, 4146, 
4147, 4148, 
*nset, nset=Fy
123, 1530, 124, 1531, 125, 1532, 1533, 
10, 154, 1566, 155, 1567, 156, 1568, 1569, 
151, 1562, 152, 1563, 153, 1564, 1565, 3, 
2641, 510, 2642, 2643, 511, 2644, 2645, 2646, 
512, 2647, 2648, 2649, 2650, 513, 2651, 2652, 
2653, 514, 2654, 2655, 2656, 2657, 2658, 515, 
2659, 2660, 2661, 516, 2662, 2663, 517, 2664, 
2665, 2666, 2667, 2668, 518, 2669, 2670, 2671, 
2672, 2673, 2674, 2675, 519, 2676, 2677, 2678, 
520, 2679, 2680, 2681, 2682, 2683, 2684, 2685, 
2686, 4, 8, 54, 1454, 55, 1455, 56, 
1456, 1457, 
*element, elset=C3D10,type=C3D10
2239, 1001, 27, 28, 528, 4358, 1427, 4357, 4359, 2704, 2703, 
2240, 548, 971, 1146, 621, 4361, 4362, 4360, 3001, 4364, 4363, 
2241, 976, 708, 649, 728, 4366, 3368, 4365, 4367, 3399, 3398, 
2242, 1394, 1410, 1283, 968, 4369, 4371, 4368, 4370, 4373, 4372, 
2243, 1240, 337, 1264, 1043, 4375, 4377, 4374, 4376, 4379, 4378, 
2244, 59, 2, 100, 376, 1461, 1505, 2616, 4380, 2132, 2131, 
2245, 492, 1103, 477, 1099, 4381, 4383, 2566, 4382, 4385, 4384, 
2246, 637, 1160, 617, 1018, 4386, 4388, 3083, 4387, 4390, 4389, 
2247, 867, 1352, 1411, 856, 4392, 4393, 4391, 3940, 4395, 4394, 
2248, 1239, 1240, 1204, 1241, 4397, 4399, 4396, 4398, 4401, 4400, 
2249, 883, 856, 1352, 867, 4033, 4395, 4402, 4032, 3940, 4392, 
2250, 1332, 846, 806, 796, 4404, 4406, 4403, 4405, 4407, 3717, 
2251, 1241, 971, 621, 1146, 4409, 4364, 4408, 4410, 4362, 4363, 
2252, 278, 279, 1059, 1014, 1758, 4413, 4411, 4412, 4415, 4414, 
2253, 592, 1008, 272, 532, 4417, 4418, 4416, 2908, 4420, 4419, 
2254, 633, 565, 613, 1134, 3070, 3023, 3067, 4421, 4423, 4422, 
2255, 1055, 1021, 1022, 1234, 4425, 4427, 4424, 4426, 4429, 4428, 
2256, 1250, 592, 1008, 1009, 4431, 4417, 4430, 4432, 4434, 4433, 
2257, 539, 598, 639, 1255, 2928, 3093, 3092, 4435, 4437, 4436, 
2258, 1200, 970, 1199, 1201, 4439, 4441, 4438, 4440, 4443, 4442, 
** ... 5419 like lines cut

*elset, elset=beam
2239, 2240, 2241, 2243, 2244, 2245, 2246, 
2248, 2251, 2252, 2253, 2254, 2255, 2256, 2257, 
2258, 2259, 2261, 2263, 2264, 2265, 2267, 2269, 
2270, 2271, 2273, 2274, 2275, 2276, 2277, 2278, 
2279, 2280, 2281, 2283, 2284, 2285, 2286, 2288, 
2289, 2290, 2293, 2294, 2295, 2296, 2297, 2300, 
2301, 2302, 2303, 2304, 2305, 2306, 2309, 2310, 
2311, 2312, 2313, 2315, 2317, 2318, 2319, 2320, 
2321, 2322, 2323, 2324, 2325, 2327, 2328, 2329, 
2330, 2331, 2332, 2333, 2334, 2337, 2338, 2340, 
2341, 2342, 2343, 2344, 2345, 2346, 2347, 2348, 
2351, 2352, 2353, 2354, 2359, 2360, 2361, 2362, 
2363, 2364, 2365, 2366, 2367, 2368, 2369, 2370, 
2372, 2374, 2375, 2376, 2377, 2378, 2379, 2380, 
2381, 2382, 2383, 2384, 2385, 2387, 2388, 2389, 
2391, 2392, 2393, 2394, 2395, 2396, 2397, 2398, 
2400, 2401, 2402, 2403, 2404, 2405, 2406, 2407, 
2408, 2409, 2410, 2412, 2413, 2414, 2415, 2416, 
2417, 2418, 2419, 2420, 2421, 2422, 2423, 2424, 
2425, 2426, 2427, 2428, 2429, 2430, 2431, 2432, 
** ... 437 like lines cut
*elset, elset=reinf
2242, 2247, 2249, 2250, 2260, 2262, 2266, 
2268, 2272, 2282, 2287, 2291, 2292, 2298, 2299, 
2307, 2308, 2314, 2316, 2326, 2335, 2336, 2339, 
2349, 2350, 2355, 2356, 2357, 2358, 2371, 2373, 
2386, 2390, 2399, 2411, 2434, 2436, 2447, 2450, 
2456, 2466, 2475, 2481, 2484, 2487, 2494, 2498, 
2500, 2506, 2508, 2513, 2515, 2517, 2520, 2522, 
2525, 2535, 2543, 2547, 2549, 2550, 2555, 2558, 
2560, 2565, 2572, 2574, 2577, 2580, 2583, 2584, 
2594, 2595, 2596, 2600, 2601, 2602, 2604, 2611, 
2617, 2624, 2628, 2643, 2647, 2650, 2653, 2675, 
2687, 2692, 2699, 2706, 2711, 2712, 2717, 2718, 
2719, 2720, 2734, 2737, 2740, 2741, 2746, 2752, 
2755, 2757, 2761, 2764, 2767, 2768, 2773, 2775, 
2776, 2779, 2784, 2794, 2803, 2810, 2815, 2820, 
2821, 2822, 2823, 2824, 2825, 2827, 2831, 2834, 
2835, 2844, 2849, 2854, 2859, 2865, 2877, 2878, 
2879, 2886, 2888, 2889, 2891, 2894, 2898, 2899, 
2921, 2922, 2926, 2943, 2947, 2948, 2952, 2955, 
2958, 2960, 2961, 2963, 2966, 2967, 2968, 2973, 
** ... 204 like lines cut

** Names based on reinf
*NSET,NSET=reinf 
1, 
2, 
6, 
7, 
11, 
12, 
13, 
14, 
79, 
80, 
81, 
82, 
83, 
84, 
85, 
86, 
87, 
88, 
89, 
90, 
** ... 3163 like lines cut
*ELSET,ELSET=Ereinf 
2242, 
2247, 
2249, 
2250, 
2260, 
2262, 
2266, 
2268, 
2272, 
2282, 
2287, 
2291, 
2292, 
2298, 
2299, 
2307, 
2308, 
2314, 
2316, 
2326, 
** ... 1765 like lines cut





*MATERIAL,NAME=some
*ELASTIC
1e5,0.3,293
1e-1,0.3,393


**for body elements, 2d plane stress and strain
*SOLID SECTION,MATERIAL=some,ELSET=beam
*SOLID SECTION,MATERIAL=some,ELSET=reinf


 *INITIAL CONDITIONS,TYPE=TEMPERATURE
Nall,293



** make sense to simulate variable bc within step (add AMPLITUDE=name to load)
** defines an amplitude function with name A1
** sample below is for loading and unloading (triangular function of load)

*AMPLITUDE,NAME=A1,time=total time
0,0,2,1


*boundary
fix,1,3



*STEP
*STATIC

*TEMPERATURE
reinf,393

*cload,amplitude=A1
Fy,2,1


*NODE FILE
U,NT
*EL FILE
S
*END STEP



*STEP
*STATIC

*TEMPERATURE,OP=NEW
reinf,293



*NODE FILE
U,NT
*EL FILE
S
*END STEP


