** Generated by Mecway 5.0
*NODE
1,-0.03319121316212,0.1280227691366,0.01519234542654
2,-0.04,0.1297405818463,0.01485529079142
3,-0.04,0.1217508237201,0.01213558006814
4,-0.04,0.1229289127417,0.01921107562817
5,0.05168346448412,0.1646982209695,-0.0102971115803
6,0.06,0.1722968449622,-0.008745176479493
7,0.05168346448412,0.173992533602,-0.01088198054243
8,0.06,0.1660773111862,0.0007181205026545
9,0.06,0.1753716238187,0.0001332515405185
10,0.03600072483934,0.1167593167487,-0.006321642478441
11,0.02661607367478,0.1174129360103,-0.01445786640281
12,0.01205654890263,0.1536484907073,0.0516668500196
13,0.03676149785567,0.2,0.02638545580738
14,0.05236504279064,0.1535500210609,0.06
15,0.05081803801161,0.1320893920193,-0.02427775988146
16,0.05269382694983,0.125388054014,-0.03339982928173
17,0.01881411546587,0.1079636204268,0.04016566882035
18,-0.01876288240375,0.143173920501,-0.04
19,-0.02572845908771,0.1488710897722,-0.04
20,0.01779964247117,0.2,0.01113863110351
** ... 3468 like lines cut
*ELEMENT,TYPE=DC3D10
1,664,643,603,639,1111,1609,1610,731,1611,1612
2,549,649,656,652,1025,1018,1225,1027,1024,1273
3,662,648,647,649,1219,1246,1613,1614,1245,1247
4,439,670,614,619,1485,938,1615,1616,700,1617
5,409,429,445,420,1618,1619,1620,1621,1622,1623
6,552,548,652,549,1624,1625,1626,1627,1628,1027
7,587,643,599,664,1629,1630,1105,1106,1111,1102
8,654,546,676,672,1631,1632,1138,1633,1634,821
9,552,676,543,652,1635,1636,1637,1626,1140,1638
10,638,634,617,665,1399,1341,1438,1365,1639,1440
11,475,498,678,490,1589,1590,1295,1297,1640,1065
12,665,494,668,488,1119,1641,1642,869,1120,1643
13,693,650,649,656,960,1017,1335,1644,1014,1018
14,587,643,664,666,1629,1111,1106,1645,1109,1110
15,688,689,652,654,1275,1272,1276,1646,975,1139
16,673,674,548,689,914,911,915,724,1647,895
17,666,580,664,587,1648,1103,1110,1645,1104,1106
18,526,522,690,523,1513,878,1514,1649,1650,1651
19,641,643,605,640,1652,1653,1093,1144,1191,1654
20,691,639,515,690,907,1587,1476,1075,933,1655
** ... 1872 like lines cut
*MATERIAL,NAME=Material-321-Thermal
*CONDUCTIVITY,TYPE=ISO
22,0
*MATERIAL,NAME=Material-321-Structural
*ELASTIC,TYPE=ISOTROPIC
200000000000,0.3
*DENSITY
7900
*NSET,NSET=x
2207
2209
*NSET,NSET=z
2207
*NSET,NSET=Face_Selection-base
407
408
411
413
415
416
417
418
419
435
436
437
438
439
450
451
452
453
454
465
** ... 141 like lines cut
*NSET,NSET=Face_Selection-top
13
20
27
28
41
42
44
47
49
50
87
97
140
142
143
145
167
199
202
206
** ... 161 like lines cut
*ELSET,ELSET=Meshed_Geometry-lower
1
2
3
4
5
6
7
8
9
10
11
12
13
14
15
16
17
18
19
20
** ... 927 like lines cut
*ELSET,ELSET=Meshed_Geometry-upper
688
689
690
691
692
693
694
695
696
697
698
699
700
701
702
703
704
705
706
707
** ... 925 like lines cut
*SURFACE,NAME=Face_Selection-base
86,S3
232,S2
664,S3
561,S3
318,S4
653,S4
186,S2
1452,S4
145,S2
623,S3
679,S4
576,S1
200,S3
1482,S1
346,S1
560,S1
181,S3
149,S4
167,S1
188,S3
** ... 48 like lines cut
*SURFACE,NAME=Face_Selection-top
945,S3
1195,S4
1274,S1
1299,S2
1320,S2
1156,S4
1054,S4
1570,S3
788,S2
1090,S3
1638,S4
1034,S2
1581,S2
966,S3
1130,S2
1023,S2
875,S1
1734,S2
1583,S2
847,S1
** ... 58 like lines cut
*SURFACE,NAME=upwardContact
1381,S3
1412,S2
77,S2
284,S2
159,S1
1469,S1
1406,S2
1845,S2
331,S3
448,S1
506,S3
133,S2
1824,S3
1817,S4
371,S2
333,S1
650,S2
1879,S1
299,S3
1433,S2
** ... 58 like lines cut
*SURFACE,NAME=downwardContact
1222,S4
1227,S1
887,S4
1003,S1
1179,S3
1316,S1
820,S2
925,S2
1314,S2
1684,S4
826,S2
1056,S2
941,S1
1324,S4
824,S1
1114,S2
1700,S1
1180,S3
1689,S3
735,S4
** ... 48 like lines cut
*SOLID SECTION,ELSET=Meshed_Geometry-lower,MATERIAL=Material-321-Thermal
*SOLID SECTION,ELSET=Meshed_Geometry-upper,MATERIAL=Material-321-Thermal
*CONTACT PAIR,INTERACTION=SI_73312D876394,TYPE=SURFACE TO SURFACE
upwardContact,downwardContact
*SURFACE INTERACTION,NAME=SI_73312D876394
*SURFACE BEHAVIOR,PRESSURE-OVERCLOSURE=TIED
2000000000000
*GAP CONDUCTANCE
2000.,,273.
*STEP
*HEAT TRANSFER,STEADYSTATE
1,1
*BOUNDARY
Face_Selection-base,11,,1273.15
Face_Selection-top,11,,288.15
*NODE FILE,GLOBAL=YES
NT
*EL FILE
HFL
*END STEP
