*node, nset=Nall
1, 1.900000e+00, 0.000000e+00, 0.000000e+00
2, 1.900000e+00, 0.000000e+00, 6.000000e+00
3, 1.900000e+00, 0.000000e+00, 1.000000e-01
4, 1.900000e+00, 0.000000e+00, 2.000000e-01
5, 1.900000e+00, 0.000000e+00, 3.000000e-01
6, 1.900000e+00, 0.000000e+00, 4.000000e-01
7, 1.900000e+00, 0.000000e+00, 5.000000e-01
8, 1.900000e+00, 0.000000e+00, 6.000000e-01
9, 1.900000e+00, 0.000000e+00, 7.000000e-01
10, 1.900000e+00, 0.000000e+00, 8.000000e-01
11, 1.900000e+00, 0.000000e+00, 9.000000e-01
12, 1.900000e+00, 0.000000e+00, 1.000000e+00
13, 1.900000e+00, 0.000000e+00, 1.100000e+00
14, 1.900000e+00, 0.000000e+00, 1.200000e+00
15, 1.900000e+00, 0.000000e+00, 1.300000e+00
16, 1.900000e+00, 0.000000e+00, 1.400000e+00
17, 1.900000e+00, 0.000000e+00, 1.500000e+00
18, 1.900000e+00, 0.000000e+00, 1.600000e+00
19, 1.900000e+00, 0.000000e+00, 1.700000e+00
20, 1.900000e+00, 0.000000e+00, 1.800000e+00
** ... 7301 like lines cut
*nset, nset=FixNodes
1, 62, 63, 64, 65, 66, 67, 
68, 69, 70, 71, 72, 73, 74, 75, 
76, 77, 78, 79, 80, 81, 82, 83, 
84, 85, 86, 87, 88, 89, 90, 91, 
92, 93, 94, 95, 96, 97, 98, 99, 
100, 101, 102, 103, 104, 105, 106, 107, 
108, 109, 110, 111, 112, 113, 114, 115, 
116, 117, 118, 119, 120, 121, 122, 123, 
124, 125, 126, 127, 128, 129, 130, 131, 
132, 133, 134, 135, 136, 137, 138, 139, 
140, 141, 142, 143, 144, 145, 146, 147, 
148, 149, 150, 151, 152, 153, 154, 155, 
156, 157, 158, 159, 160, 161, 162, 163, 
164, 165, 166, 167, 168, 169, 170, 171, 
172, 173, 174, 175, 176, 177, 178, 179, 
180, 
*nset, nset=ForceNodes
2, 181, 182, 183, 184, 185, 186, 
187, 188, 189, 190, 191, 192, 193, 194, 
195, 196, 197, 198, 199, 200, 201, 202, 
203, 204, 205, 206, 207, 208, 209, 210, 
211, 212, 213, 214, 215, 216, 217, 218, 
219, 220, 221, 222, 223, 224, 225, 226, 
227, 228, 229, 230, 231, 232, 233, 234, 
235, 236, 237, 238, 239, 240, 241, 242, 
243, 244, 245, 246, 247, 248, 249, 250, 
251, 252, 253, 254, 255, 256, 257, 258, 
259, 260, 261, 262, 263, 264, 265, 266, 
267, 268, 269, 270, 271, 272, 273, 274, 
275, 276, 277, 278, 279, 280, 281, 282, 
283, 284, 285, 286, 287, 288, 289, 290, 
291, 292, 293, 294, 295, 296, 297, 298, 
299, 
*nset, nset=MNode
7321, 
*element, elset=S4R,type=S4R
301, 2, 299, 300, 61, 
302, 299, 298, 301, 300, 
303, 298, 297, 302, 301, 
304, 297, 296, 303, 302, 
305, 296, 295, 304, 303, 
306, 295, 294, 305, 304, 
307, 294, 293, 306, 305, 
308, 293, 292, 307, 306, 
309, 292, 291, 308, 307, 
310, 291, 290, 309, 308, 
311, 290, 289, 310, 309, 
312, 289, 288, 311, 310, 
313, 288, 287, 312, 311, 
314, 287, 286, 313, 312, 
315, 286, 285, 314, 313, 
316, 285, 284, 315, 314, 
317, 284, 283, 316, 315, 
318, 283, 282, 317, 316, 
319, 282, 281, 318, 317, 
320, 281, 280, 319, 318, 
** ... 7180 like lines cut

*elset, elset=FixNodes
1, 62, 63, 64, 65, 66, 67, 
68, 69, 70, 71, 72, 73, 74, 75, 
76, 77, 78, 79, 80, 81, 82, 83, 
84, 85, 86, 87, 88, 89, 90, 91, 
92, 93, 94, 95, 96, 97, 98, 99, 
100, 101, 102, 103, 104, 105, 106, 107, 
108, 109, 110, 111, 112, 113, 114, 115, 
116, 117, 118, 119, 120, 121, 122, 123, 
124, 125, 126, 127, 128, 129, 130, 131, 
132, 133, 134, 135, 136, 137, 138, 139, 
140, 141, 142, 143, 144, 145, 146, 147, 
148, 149, 150, 151, 152, 153, 154, 155, 
156, 157, 158, 159, 160, 161, 162, 163, 
164, 165, 166, 167, 168, 169, 170, 171, 
172, 173, 174, 175, 176, 177, 178, 179, 
180, 
*elset, elset=ForceNodes
2, 181, 182, 183, 184, 185, 186, 
187, 188, 189, 190, 191, 192, 193, 194, 
195, 196, 197, 198, 199, 200, 201, 202, 
203, 204, 205, 206, 207, 208, 209, 210, 
211, 212, 213, 214, 215, 216, 217, 218, 
219, 220, 221, 222, 223, 224, 225, 226, 
227, 228, 229, 230, 231, 232, 233, 234, 
235, 236, 237, 238, 239, 240, 241, 242, 
243, 244, 245, 246, 247, 248, 249, 250, 
251, 252, 253, 254, 255, 256, 257, 258, 
259, 260, 261, 262, 263, 264, 265, 266, 
267, 268, 269, 270, 271, 272, 273, 274, 
275, 276, 277, 278, 279, 280, 281, 282, 
283, 284, 285, 286, 287, 288, 289, 290, 
291, 292, 293, 294, 295, 296, 297, 298, 
299, 
*elset, elset=PressureLoad
301, 302, 303, 304, 305, 306, 307, 
308, 309, 310, 311, 312, 313, 314, 315, 
316, 317, 318, 319, 320, 321, 322, 323, 
324, 325, 326, 327, 328, 329, 330, 331, 
332, 333, 334, 335, 336, 337, 338, 339, 
340, 341, 342, 343, 344, 345, 346, 347, 
348, 349, 350, 351, 352, 353, 354, 355, 
356, 357, 358, 359, 360, 361, 362, 363, 
364, 365, 366, 367, 368, 369, 370, 371, 
372, 373, 374, 375, 376, 377, 378, 379, 
380, 381, 382, 383, 384, 385, 386, 387, 
388, 389, 390, 391, 392, 393, 394, 395, 
396, 397, 398, 399, 400, 401, 402, 403, 
404, 405, 406, 407, 408, 409, 410, 411, 
412, 413, 414, 415, 416, 417, 418, 419, 
420, 421, 422, 423, 424, 425, 426, 427, 
428, 429, 430, 431, 432, 433, 434, 435, 
436, 437, 438, 439, 440, 441, 442, 443, 
444, 445, 446, 447, 448, 449, 450, 451, 
452, 453, 454, 455, 456, 457, 458, 459, 
** ... 881 like lines cut
*elset, elset=ShellElements
301, 302, 303, 304, 305, 306, 307, 
308, 309, 310, 311, 312, 313, 314, 315, 
316, 317, 318, 319, 320, 321, 322, 323, 
324, 325, 326, 327, 328, 329, 330, 331, 
332, 333, 334, 335, 336, 337, 338, 339, 
340, 341, 342, 343, 344, 345, 346, 347, 
348, 349, 350, 351, 352, 353, 354, 355, 
356, 357, 358, 359, 360, 361, 362, 363, 
364, 365, 366, 367, 368, 369, 370, 371, 
372, 373, 374, 375, 376, 377, 378, 379, 
380, 381, 382, 383, 384, 385, 386, 387, 
388, 389, 390, 391, 392, 393, 394, 395, 
396, 397, 398, 399, 400, 401, 402, 403, 
404, 405, 406, 407, 408, 409, 410, 411, 
412, 413, 414, 415, 416, 417, 418, 419, 
420, 421, 422, 423, 424, 425, 426, 427, 
428, 429, 430, 431, 432, 433, 434, 435, 
436, 437, 438, 439, 440, 441, 442, 443, 
444, 445, 446, 447, 448, 449, 450, 451, 
452, 453, 454, 455, 456, 457, 458, 459, 
** ... 881 like lines cut
*elset, elset=MNode
7321, 

*MATERIAL,NAME=al2024t4
*ELASTIC
7.3000E+07,0.33

*SHELL SECTION,MATERIAL=al2024t4,ELSET=S4R,
2.0000E-03

*ORIENTATION, NAME=CYL, SYSTEM=CYLINDRICAL
0, 0, 0, 6, 0, 0

*SURFACE,NAME=SurfNodes,TYPE=NODE
ForceNodes

*Coupling, CONSTRAINT NAME=c1, REF NODE=7321, SURFACE=SurfNodes, ORIENTATION=CYL
*Kinematic
2, 2
3, 3
6, 6

*TRANSFORM, NSET=FixNodes, TYPE=C
0, 0, 0, 0, 0, 1

*BOUNDARY
FixNodes,2,2
FixNodes,3,3
FixNodes,4,4
FixNodes,5,5
FixNodes,6,6

*STEP
*STATIC

*DLOAD
PressureLoad, P, 50

*Cload
MNode, 1, 200.
MNode, 2, -250.
MNode, 3, -300.
MNode, 4, 500.
MNode, 5, -500.
MNode, 6, -600.

  *NODE FILE 
U,
  *EL FILE
S,
*END STEP
