** Generated by Mecway 6.0
*NODE
1,-0.1,0,0
2,0.1,0,0
3,-0.02047325209299,-0.01081739636335,0
4,-0.02289091985899,-0.003570313856828,0
5,-0.03067490647421,-0.0004711003926442,0
6,-0.03078575798575,-0.0006175126232158,0
7,-0.02646356197269,-0.001265722351596,0
8,-0.002972363150454,0.002622935472748,0
9,0.1,0.001093125,0
10,0.1,0.0011925,0
11,0.1,0.001291875,0
12,0.1,0.00139125,0
13,0.1,0.001490625,0
14,0.1,0.00159,0
15,-0.1,9.9375E-05,0
16,-0.1,0.00019875,0
17,-0.1,0.000298125,0
18,-0.1,0.0003975,0
19,-0.1,0.000496875,0
20,0.007555701607031,0.005918755897288,0
** ... 37850 like lines cut
*ELEMENT,TYPE=CPE4
1,1927,1926,4052,4036
3,36227,36225,35967,35968
4,36760,36636,36637,36759
5,4055,4071,4072,4056
6,4056,4072,4073,4057
7,4057,4073,4074,4058
8,4058,4074,4075,4059
9,4059,4075,4076,4060
10,35495,35496,35636,35635
11,35495,35635,35634,35494
12,35432,35433,35667,35666
13,36635,36636,36760,36761
14,36764,36632,36633,36763
16,4060,4076,4077,4061
17,4061,4077,4078,4062
18,4062,4078,4079,4063
19,4063,4079,4080,4064
20,4064,4080,4081,4065
21,4065,4081,4082,4066
22,4066,4082,4083,4067
** ... 35294 like lines cut
*ELEMENT,TYPE=CPE3
2,36226,36227,35968
15,7,36700,36847
32077,48,35413,24
32246,35783,35592,35593
32460,35830,35598,35599
33028,35744,35840,35588
33127,35740,35839,35531
33200,35137,35138,35581
33248,35411,35222,34768
33353,34290,34743,34289
33406,35678,35679,35837
33432,35574,35575,35774
33435,35779,35780,35569
33443,35513,35514,35751
33445,35757,35758,35508
33471,35720,35721,35459
33477,35787,23,35351
33506,35687,35766,35244
33539,35725,35726,35287
33555,35641,35681,35241
** ... 61 like lines cut
*NSET,NSET=contact-nset-upper
10707
10723
10739
10755
10771
10787
10803
10819
10835
10851
10867
10883
10899
10915
10931
10947
10963
10979
10995
11011
** ... 381 like lines cut
*NSET,NSET=contact-nset-lower-LH
61
62
63
64
65
66
67
68
69
70
173
174
175
176
177
178
179
180
181
182
** ... 480 like lines cut
*NSET,NSET=contact-nset-lower-RH
74
75
76
77
78
79
80
81
82
83
299
300
301
302
303
304
305
306
307
308
** ... 480 like lines cut
*NSET,NSET=contact-nset-punch
34046
34047
34048
34049
34050
34051
34052
34053
34054
34055
34056
34057
34058
34059
34060
34061
34062
34063
34064
34065
** ... 216 like lines cut
*NSET,NSET=bc-y
72
33716
33717
33718
33719
33720
33721
33722
33723
33724
33725
33726
33727
33728
33729
33730
33731
*NSET,NSET=nset-anvil-LH
3
4
5
6
7
27
28
29
30
31
32
33
50
52
35845
35846
35847
35848
35849
35850
** ... 999 like lines cut
*NSET,NSET=nset-anvil-RH
36850
36851
36852
36853
36854
36855
36856
36857
36858
36859
36860
36861
36862
36863
36864
36865
36866
36867
36868
36869
** ... 995 like lines cut
*NSET,NSET=nset-punch
8
20
21
22
23
24
25
26
35
37
38
48
49
51
34046
34047
34048
34049
34050
34051
** ... 1793 like lines cut
*ELSET,ELSET=workpiece
1
5
6
7
8
9
16
17
18
19
20
21
22
30
31
32
33
34
35
36
** ... 31980 like lines cut
*ELSET,ELSET=punch
10
11
12
23
24
27
28
29
32017
32018
32019
32020
32021
32022
32023
32024
32025
32026
32027
32028
** ... 1582 like lines cut
*ELSET,ELSET=anvil-LH
2
3
4
13
14
15
25
26
33611
33612
33613
33614
33615
33616
33617
33618
33619
33620
33621
33622
** ... 878 like lines cut
*ELSET,ELSET=anvil-RH
34501
34502
34503
34504
34505
34506
34507
34508
34509
34510
34511
34512
34513
34514
34515
34516
34517
34518
34519
34520
** ... 875 like lines cut
*SURFACE,NAME=contact-anvil-LH
3,S3
33611,S1
33612,S1
33613,S1
33614,S1
33615,S1
33616,S1
33617,S1
33618,S1
33619,S1
33620,S1
33621,S1
33622,S1
33623,S1
33624,S1
33625,S1
33626,S1
33627,S1
33628,S1
33629,S1
** ... 109 like lines cut
*SURFACE,NAME=contact-anvil-RH
34501,S1
34502,S1
34503,S1
34504,S1
34505,S1
34506,S1
34507,S1
34508,S1
34509,S1
34510,S1
34511,S1
34512,S1
34513,S1
34514,S1
34515,S1
34516,S1
34517,S1
34518,S1
34519,S1
34520,S1
** ... 109 like lines cut
*SURFACE,NAME=contact-lower-LH
2173,S1
2189,S1
2205,S1
2221,S1
2237,S1
2253,S1
2269,S1
2285,S1
2301,S1
2317,S1
3965,S1
3981,S1
3997,S1
4013,S1
4029,S1
4045,S1
4061,S1
4077,S1
4093,S1
4109,S1
** ... 479 like lines cut
*SURFACE,NAME=contact-lower-RH
2397,S1
2413,S1
2429,S1
2445,S1
2461,S1
2477,S1
2493,S1
2509,S1
2525,S1
5981,S1
5997,S1
6013,S1
6029,S1
6045,S1
6061,S1
6077,S1
6093,S1
6109,S1
6125,S1
6141,S1
** ... 479 like lines cut
*SURFACE,NAME=contact-punch
32017,S1
32018,S1
32019,S1
32020,S1
32021,S1
32022,S1
32023,S1
32024,S1
32025,S1
32026,S1
32027,S1
32028,S1
32029,S1
32030,S1
32031,S1
32032,S1
32033,S1
32034,S1
32035,S1
32036,S1
** ... 215 like lines cut
*SURFACE,NAME=contact-upper
2316,S3
2332,S3
2348,S3
2364,S3
2380,S3
2396,S3
2412,S3
2428,S3
5132,S3
5148,S3
5164,S3
5180,S3
5196,S3
5212,S3
5228,S3
5244,S3
5260,S3
5276,S3
5292,S3
5308,S3
** ... 380 like lines cut
*MATERIAL,NAME=Material-316
*ELASTIC,TYPE=ISOTROPIC
200000000000,0.3
*SOLID SECTION,ELSET=workpiece,MATERIAL=Material-316
1
*SOLID SECTION,ELSET=punch,MATERIAL=Material-316
1
*SOLID SECTION,ELSET=anvil-LH,MATERIAL=Material-316
1
*SOLID SECTION,ELSET=anvil-RH,MATERIAL=Material-316
1
*RIGID BODY,NSET=nset-anvil-LH,REF NODE=38001,ROT NODE=38004
*RIGID BODY,NSET=nset-anvil-RH,REF NODE=38002,ROT NODE=38005
*RIGID BODY,NSET=nset-punch,REF NODE=38003,ROT NODE=38006
*CONTACT PAIR,INTERACTION=IN_DIE,TYPE=SURFACE TO SURFACE
contact-upper,contact-punch
*SURFACE INTERACTION,NAME=IN_DIE
*SURFACE BEHAVIOR,PRESSURE-OVERCLOSURE=EXPONENTIAL
1.e-7,.1
*CONTACT PAIR,INTERACTION=IN_LH,TYPE=SURFACE TO SURFACE
contact-lower-LH,contact-anvil-LH
*SURFACE INTERACTION,NAME=IN_LH
*SURFACE BEHAVIOR,PRESSURE-OVERCLOSURE=EXPONENTIAL
1.e-7,.1
*CONTACT PAIR,INTERACTION=IN_RH,TYPE=SURFACE TO SURFACE
contact-lower-RH,contact-anvil-RH
*SURFACE INTERACTION,NAME=IN_RH
*SURFACE BEHAVIOR,PRESSURE-OVERCLOSURE=EXPONENTIAL
1.e-7,.1
*BOUNDARY
38001,1,2
38002,1,2
38003,1,1
**38003,3,3
38004,1,3
38005,1,3
38006,1,3
bc-y,2,2
*STEP
*STATIC
*BOUNDARY
38003,2,2,-0.002
*NODE FILE,GLOBAL=YES
U,RF
*EL FILE
S
*END STEP
