*NODE, NSET=Nall
4, 50.000000, 10.000000, 0.000000
1, 0.000000, 0.000000, 0.000000
5, 0.000000, 10.000000, 0.000000
2, 40.000000, 0.000000, 0.000000
3, 50.000000, 0.000000, 0.000000
35, 36.250000, 0.000000, 0.000000
52, 45.000000, 10.000000, 0.000000
144, 22.494752, 7.494752, 0.000000
146, 12.483618, 4.983618, 0.000000
13, 20.000000, 0.000000, 0.000000
15, 25.000000, 0.000000, 0.000000
91, 0.000000, 5.000000, 0.000000
134, 24.997396, 2.497396, 0.000000
136, 22.491057, 4.991057, 0.000000
138, 34.999832, 7.499832, 0.000000
143, 24.997389, 7.497389, 0.000000
145, 27.498481, 7.498481, 0.000000
7, 5.000000, 0.000000, 0.000000
62, 20.000000, 10.000000, 0.000000
142, 2.496825, 2.496825, 0.000000
** ... 269 like lines cut
*ELEMENT, TYPE=CPE8, ELSET=Eall
1, 102, 106, 108, 107, 154, 155, 156, 157
2, 106, 68, 69, 108, 158, 88, 159, 155
3, 108, 69, 5, 90, 159, 89, 93, 160
4, 107, 108, 90, 91, 156, 160, 94, 161
5, 103, 109, 112, 111, 162, 163, 164, 165
6, 109, 98, 110, 112, 166, 167, 168, 163
7, 112, 110, 2, 37, 168, 169, 40, 170
8, 111, 112, 37, 38, 164, 170, 41, 171
9, 98, 113, 115, 110, 172, 173, 174, 167
10, 113, 97, 114, 115, 175, 176, 177, 173
11, 115, 114, 19, 20, 177, 178, 35, 179
12, 110, 115, 20, 2, 174, 179, 36, 169
13, 3, 44, 117, 39, 47, 180, 181, 43
14, 44, 45, 116, 117, 48, 182, 183, 180
15, 117, 116, 103, 111, 183, 184, 165, 185
16, 39, 117, 111, 38, 181, 185, 171, 42
17, 100, 118, 121, 120, 186, 187, 188, 189
18, 118, 104, 119, 121, 190, 191, 192, 187
19, 121, 119, 62, 63, 192, 193, 82, 194
20, 120, 121, 63, 64, 188, 194, 83, 195
** ... 60 like lines cut
*NSET,NSET=PART0_bottom_nall
1, 5, 91, 90, 92, 94,
96, 93, 95
*NSET,NSET=P0_nall
1
*ELSET,ELSET=PART0
1, 2, 3, 4, 5, 6,
7, 8, 9, 10, 11, 12,
13, 14, 15, 16, 17, 18,
19, 20, 21, 22, 23, 24,
25, 26, 27, 28, 29, 30,
31, 32, 33, 34, 35, 36,
37, 38, 39, 40, 41, 42,
43, 44, 45, 46, 47, 48,
49, 50, 51, 52, 53, 54,
55, 56, 57, 58, 59, 60,
61, 62, 63, 64, 65, 66,
67, 68, 69, 70, 71, 72,
73, 74, 75, 76, 77, 78,
79, 80
*BOUNDARY
PART0_bottom_nall,1,1,0.000000
*BOUNDARY
P0_nall,2,2,0.000000
*MATERIAL,NAME=concrete
*ELASTIC
30000000000,0.2
*DENSITY
2300
*SOLID SECTION,ELSET=PART0,MATERIAL=concrete
100
*STEP
*STATIC
** Gravity on component: PART0_elements
*DLOAD
PART0,GRAV,9.810000,-1.,0.,0.
*EL FILE
E,S
*NODE FILE
RF,U
*END STEP
