**
** Heading +++++++++++++++++++++++++++++++++++++++++++++++++
**
*Heading
Model: Model-1,     Date: 11/29/2018
**
** Nodes +++++++++++++++++++++++++++++++++++++++++++++++++++
**
*Node
1, -7.50000000E+000, 2.50000000E+000, 7.50000000E+000
2, 7.50000000E+000, 2.50000000E+000, 7.50000000E+000
3, 7.50000000E+000, 2.50000000E+000, 2.25000000E+001
4, -7.50000000E+000, 2.50000000E+000, 2.25000000E+001
5, 1.00000000E+001, 5.00000000E+000, 7.50000000E+000
6, 1.00000000E+001, 5.00000000E+000, 2.25000000E+001
7, 7.50000000E+000, 5.00000000E+000, 2.50000000E+001
8, -7.50000000E+000, 5.00000000E+000, 5.00000000E+000
9, -1.00000000E+001, 5.00000000E+000, 7.50000000E+000
10, 7.50000000E+000, 5.00000000E+000, 5.00000000E+000
11, -7.50000000E+000, 5.00000000E+000, 2.50000000E+001
12, -1.00000000E+001, 5.00000000E+000, 2.25000000E+001
13, 1.00000000E+001, 2.50000000E+001, 7.50000000E+000
14, 1.00000000E+001, 2.50000000E+001, 2.25000000E+001
15, 7.50000000E+000, 2.50000000E+001, 2.50000000E+001
16, -1.00000000E+001, 2.50000000E+001, 7.50000000E+000
17, -7.50000000E+000, 2.50000000E+001, 5.00000000E+000
18, 7.50000000E+000, 2.50000000E+001, 5.00000000E+000
19, -7.50000000E+000, 2.50000000E+001, 2.50000000E+001
20, -1.00000000E+001, 2.50000000E+001, 2.25000000E+001
** ... 29959 like lines cut
**
** Elements ++++++++++++++++++++++++++++++++++++++++++++++++
**
*Element, Type=C3D10, Elset=Punch
1, 1122, 1123, 1124, 1125, 3095, 3094, 3093, 3097, 3096, 3098
2, 1123, 1126, 1127, 1128, 3101, 3100, 3099, 3103, 3102, 3104
3, 1123, 1129, 1130, 1131, 3107, 3106, 3105, 3109, 3108, 3110
4, 1132, 1133, 1134, 1135, 3113, 3112, 3111, 3115, 3114, 3116
5, 1123, 1136, 1126, 1125, 3118, 3117, 3101, 3096, 3119, 3120
6, 1123, 1122, 1136, 1125, 3095, 3121, 3118, 3096, 3097, 3119
7, 1123, 1129, 1137, 1127, 3107, 3123, 3122, 3099, 3124, 3125
8, 1130, 1127, 1138, 1129, 3128, 3127, 3126, 3106, 3124, 3129
9, 1130, 1136, 1139, 1140, 3132, 3131, 3130, 3134, 3133, 3135
10, 1130, 1141, 1142, 1143, 3138, 3137, 3136, 3140, 3139, 3141
11, 1130, 1144, 1141, 1145, 3143, 3142, 3138, 3145, 3144, 3146
12, 1123, 1130, 1136, 1131, 3105, 3132, 3118, 3109, 3110, 3147
13, 1130, 1136, 1143, 1146, 3132, 3148, 3140, 3150, 3149, 3151
14, 1130, 1136, 1131, 1143, 3132, 3147, 3110, 3140, 3148, 3152
15, 1147, 1148, 1149, 1150, 3155, 3154, 3153, 3157, 3156, 3158
16, 1147, 1151, 1152, 1153, 3161, 3160, 3159, 3163, 3162, 3164
17, 1147, 1151, 1154, 1152, 3161, 3166, 3165, 3159, 3160, 3167
18, 1147, 1150, 1155, 1138, 3157, 3169, 3168, 3171, 3170, 3172
19, 1156, 1157, 1152, 1158, 3175, 3174, 3173, 3177, 3176, 3178
20, 1156, 1159, 1157, 1158, 3180, 3179, 3175, 3177, 3181, 3176
** ... 15091 like lines cut
*Element, Type=C3D8R, Elset=Plate
35623, 54282, 54283, 54344, 54343, 52391, 52392, 52453, 52452
35624, 54283, 54284, 54345, 54344, 52392, 52393, 52454, 52453
35625, 54284, 54285, 54346, 54345, 52393, 52394, 52455, 52454
35626, 54285, 54286, 54347, 54346, 52394, 52395, 52456, 52455
35627, 54286, 54287, 54348, 54347, 52395, 52396, 52457, 52456
35628, 54287, 54288, 54349, 54348, 52396, 52397, 52458, 52457
35629, 54288, 54289, 54350, 54349, 52397, 52398, 52459, 52458
35630, 54289, 54290, 54351, 54350, 52398, 52399, 52460, 52459
35631, 54290, 54291, 54352, 54351, 52399, 52400, 52461, 52460
35632, 54291, 54292, 54353, 54352, 52400, 52401, 52462, 52461
35633, 54292, 54293, 54354, 54353, 52401, 52402, 52463, 52462
35634, 54293, 54294, 54355, 54354, 52402, 52403, 52464, 52463
35635, 54294, 54295, 54356, 54355, 52403, 52404, 52465, 52464
35636, 54295, 54296, 54357, 54356, 52404, 52405, 52466, 52465
35637, 54296, 54297, 54358, 54357, 52405, 52406, 52467, 52466
35638, 54297, 54298, 54359, 54358, 52406, 52407, 52468, 52467
35639, 54298, 54299, 54360, 54359, 52407, 52408, 52469, 52468
35640, 54299, 54300, 54361, 54360, 52408, 52409, 52470, 52469
35641, 54300, 54301, 54362, 54361, 52409, 52410, 52471, 52470
35642, 54301, 54302, 54363, 54362, 52410, 52411, 52472, 52471
** ... 5380 like lines cut
**
** Node sets +++++++++++++++++++++++++++++++++++++++++++++++
**
*Nset, Nset=Npnch
1122, 1123, 1124, 1125, 3095, 3094, 3093, 3097, 3096, 3098, 1126, 1127, 1128, 3101, 3100, 3099, 
3103, 3102, 3104, 1129, 1130, 1131, 3107, 3106, 3105, 3109, 3108, 3110, 1132, 1133, 1134, 1135, 
3113, 3112, 3111, 3115, 3114, 3116, 1136, 3118, 3117, 3119, 3120, 3121, 1137, 3123, 3122, 3124, 
3125, 1138, 3128, 3127, 3126, 3129, 1139, 1140, 3132, 3131, 3130, 3134, 3133, 3135, 1141, 1142, 
1143, 3138, 3137, 3136, 3140, 3139, 3141, 1144, 1145, 3143, 3142, 3145, 3144, 3146, 3147, 1146, 
3148, 3150, 3149, 3151, 3152, 1147, 1148, 1149, 1150, 3155, 3154, 3153, 3157, 3156, 3158, 1151, 
1152, 1153, 3161, 3160, 3159, 3163, 3162, 3164, 1154, 3166, 3165, 3167, 1155, 3169, 3168, 3171, 
3170, 3172, 1156, 1157, 1158, 3175, 3174, 3173, 3177, 3176, 3178, 1159, 3180, 3179, 3181, 1160, 
1161, 1162, 3184, 3183, 3182, 3186, 3185, 3187, 1163, 1164, 3189, 3188, 3191, 3190, 3192, 1165, 
3194, 3193, 3195, 3196, 3197, 1166, 1167, 1168, 1169, 3200, 3199, 3198, 3202, 3201, 3203, 1170, 
1171, 1172, 3206, 3205, 3204, 3208, 3207, 3209, 1173, 1174, 3211, 3210, 3213, 3212, 3214, 1175, 
1176, 3217, 3216, 3215, 3218, 3219, 1177, 1178, 3221, 3220, 3223, 3222, 3224, 1179, 3226, 3225, 
3227, 3228, 1180, 1181, 1182, 1183, 3231, 3230, 3229, 3233, 3232, 3234, 1184, 1185, 1186, 3237, 
3236, 3235, 3239, 3238, 3240, 1187, 3242, 3241, 3243, 1188, 264, 29, 265, 3246, 3245, 3244, 
3248, 3247, 3249, 1189, 3251, 3250, 3252, 1190, 3254, 3253, 3255, 1191, 1192, 1193, 1194, 3258, 
3257, 3256, 3260, 3259, 3261, 1195, 1196, 3264, 3263, 3262, 3266, 3265, 1197, 3268, 3267, 3269, 
1198, 1199, 3272, 3271, 3270, 3274, 3273, 3275, 1200, 1201, 1202, 1203, 3278, 3277, 3276, 3280, 
3279, 3281, 1204, 1205, 500, 1206, 3284, 3283, 3282, 3286, 3285, 3287, 1207, 3290, 3289, 3288, 
3291, 3292, 3293, 3294, 1208, 1209, 1210, 1211, 3297, 3296, 3295, 3299, 3298, 3300, 1212, 1213, 
3302, 3301, 3304, 3303, 3305, 1214, 3307, 3306, 3308, 1215, 1216, 1217, 3311, 3310, 3309, 3313, 
** ... 1381 like lines cut
*Nset, Nset=Dirich
58103, 58104, 56213, 56212, 54322, 54321, 58102, 56211, 58105, 56214, 54320, 54323, 52431, 52430, 58101, 56210, 
58106, 56215, 54319, 52429, 54324, 52432, 58100, 56209, 58107, 56216, 54318, 52428, 54325, 52433, 58099, 56208, 
58108, 56217, 54317, 52427, 54326, 52434, 58098, 56207, 58109, 56218, 54316, 52426, 54327, 52435, 58097, 56206, 
58110, 56219, 54315, 52425, 54328, 52436, 58096, 56205, 58111, 56220, 54314, 52424, 54329, 52437, 58095, 56204, 
58112, 56221, 54313, 52423, 54330, 52438, 58094, 56203, 58113, 56222, 54312, 52422, 54331, 52439, 58093, 56202, 
58114, 56223, 54311, 52421, 54332, 52440, 58092, 56201, 58115, 56224, 54310, 52420, 54333, 52441, 58091, 56200, 
58116, 56225, 54309, 52419, 54334, 52442, 58090, 56199, 58117, 56226, 54308, 52418, 54335, 52443, 58089, 56198, 
58118, 56227, 54307, 52417, 54336, 52444, 58088, 56197, 58119, 56228, 54306, 52416, 54337, 52445, 58087, 56196, 
58120, 56229, 54305, 52415, 54338, 52446, 58086, 56195, 58121, 56230, 54304, 52414, 54339, 52447, 58085, 56194, 
58122, 56231, 54303, 52413, 54340, 52448, 58084, 56193, 58123, 56232, 54302, 52412, 54341, 52449, 58083, 56192, 
58124, 56233, 54301, 52411, 54342, 52450, 58082, 56191, 54300, 52410, 52451, 58081, 56190, 54299, 52409, 58080, 
56189, 54298, 52408, 58079, 56188, 54297, 52407, 58078, 56187, 54296, 52406, 58077, 56186, 54295, 52405, 58076, 
56185, 54294, 52404, 58075, 56184, 54293, 52403, 58074, 56183, 54292, 52402, 58073, 56182, 54291, 52401, 58072, 
56181, 54290, 52400, 58071, 56180, 54289, 52399, 58070, 56179, 54288, 52398, 58069, 56178, 54287, 52397, 58068, 
56177, 54286, 52396, 58067, 56176, 54285, 52395, 58066, 56175, 54284, 52394, 58065, 56174, 52393, 54283, 58064, 
56173, 52392, 54282, 52391, 56965, 57026, 55135, 55074, 58856, 58917, 56904, 55013, 57087, 55196, 53244, 53183, 
58795, 58978, 56843, 54952, 53122, 57148, 55257, 53305, 58734, 59039, 56782, 54891, 53061, 57209, 55318, 53366, 
58673, 59100, 56721, 54830, 53000, 57270, 55379, 53427, 58612, 59161, 56660, 54769, 52939, 57331, 55440, 53488, 
58551, 59222, 56599, 54708, 52878, 57392, 55501, 53549, 58490, 59283, 56538, 54647, 52817, 57453, 55562, 53610, 
58429, 59344, 56477, 54586, 52756, 57514, 55623, 53671, 58368, 59405, 56416, 54525, 52695, 57575, 55684, 53732, 
** ... 25 like lines cut

*Nset, Nset=internal-1_Slave_plate
58253, 58314, 58315, 58254, 58316, 58255, 58317, 58256, 58318, 58257, 58319, 58258, 58320, 58259, 58321, 58260, 
58322, 58261, 58323, 58262, 58324, 58263, 58325, 58264, 58326, 58265, 58327, 58266, 58328, 58267, 58329, 58268, 
58330, 58269, 58331, 58270, 58332, 58271, 58333, 58272, 58334, 58273, 58335, 58274, 58336, 58275, 58337, 58276, 
58338, 58277, 58339, 58278, 58340, 58279, 58341, 58280, 58342, 58281, 58343, 58282, 58344, 58283, 58345, 58284, 
58346, 58285, 58347, 58286, 58348, 58287, 58349, 58288, 58350, 58289, 58351, 58290, 58352, 58291, 58353, 58292, 
58354, 58293, 58355, 58294, 58356, 58295, 58357, 58296, 58358, 58297, 58359, 58298, 58360, 58299, 58361, 58300, 
58362, 58301, 58363, 58302, 58364, 58303, 58365, 58304, 58366, 58305, 58367, 58306, 58368, 58307, 58308, 58369, 
58370, 58309, 58310, 58371, 58372, 58311, 58251, 58312, 58313, 58252, 58373, 58374, 58375, 58376, 58377, 58378, 
58379, 58380, 58381, 58382, 58383, 58384, 58385, 58386, 58387, 58388, 58389, 58390, 58391, 58392, 58393, 58394, 
58395, 58396, 58397, 58398, 58399, 58400, 58401, 58402, 58403, 58404, 58405, 58406, 58407, 58408, 58409, 58410, 
58411, 58412, 58413, 58414, 58415, 58416, 58417, 58418, 58419, 58420, 58421, 58422, 58423, 58424, 58425, 58426, 
58427, 58428, 58429, 58430, 58431, 58432, 58433, 58434, 58435, 58436, 58437, 58438, 58439, 58440, 58441, 58442, 
58443, 58444, 58445, 58446, 58447, 58448, 58449, 58450, 58451, 58452, 58453, 58454, 58455, 58456, 58457, 58458, 
58459, 58460, 58461, 58462, 58463, 58464, 58465, 58466, 58467, 58468, 58469, 58470, 58471, 58472, 58473, 58474, 
58475, 58476, 58477, 58478, 58479, 58480, 58481, 58482, 58483, 58484, 58485, 58486, 58487, 58488, 58489, 58490, 
58491, 58492, 58493, 58494, 58495, 58496, 58497, 58498, 58499, 58500, 58501, 58502, 58503, 58504, 58505, 58506, 
58507, 58508, 58509, 58510, 58511, 58512, 58513, 58514, 58515, 58516, 58517, 58518, 58519, 58520, 58521, 58522, 
58523, 58524, 58525, 58526, 58527, 58528, 58529, 58530, 58531, 58532, 58533, 58534, 58535, 58536, 58537, 58538, 
58539, 58540, 58541, 58542, 58543, 58544, 58545, 58546, 58547, 58548, 58549, 58550, 58551, 58552, 58553, 58554, 
58555, 58556, 58557, 58558, 58559, 58560, 58561, 58562, 58563, 58564, 58565, 58566, 58567, 58568, 58569, 58570, 
** ... 99 like lines cut
*Nset, Nset=internal-2_Master_punch
706, 213, 214, 18399, 16785, 18401, 218, 219, 711, 9740, 16916, 11833, 797, 785, 798, 14944, 
14282, 17830, 774, 762, 98, 10819, 17392, 17481, 734, 746, 733, 9629, 9633, 9631, 753, 740, 
741, 17334, 5243, 17347, 805, 804, 792, 17794, 17882, 17888, 717, 705, 718, 4280, 8066, 17205, 
776, 777, 789, 13863, 12501, 13864, 760, 759, 747, 17361, 17250, 10217, 704, 4284, 4282, 716, 
6735, 17096, 724, 736, 723, 4313, 4317, 4315, 735, 14176, 9450, 97, 9329, 17482, 780, 781, 
793, 17245, 7655, 17697, 744, 732, 745, 18529, 20990, 20989, 748, 10215, 10219, 752, 764, 751, 
7623, 7627, 7625, 806, 157, 17699, 10319, 17592, 17247, 17248, 758, 11801, 12942, 763, 227, 6029, 
6033, 6031, 17127, 16920, 810, 17910, 9651, 730, 731, 17093, 17094, 7824, 722, 18454, 18458, 18456, 
775, 7396, 7400, 7398, 786, 773, 20787, 20877, 8006, 728, 5241, 5245, 765, 17522, 17669, 17514, 
19022, 754, 742, 17348, 17086, 12589, 710, 11835, 11295, 8064, 16751, 150, 223, 799, 13911, 13956, 
13973, 794, 7651, 17708, 17895, 790, 802, 13820, 13823, 12503, 720, 719, 707, 7874, 17075, 17099, 
807, 17711, 17709, 709, 708, 216, 18355, 11190, 18762, 99, 17390, 10764, 721, 18580, 16829, 16826, 
16827, 801, 153, 17858, 17859, 17773, 703, 715, 231, 17042, 17034, 16708, 729, 6731, 6733, 808, 
796, 809, 17905, 16002, 14497, 217, 11293, 11785, 18937, 17694, 17696, 803, 791, 17674, 17675, 7659, 
7653, 17847, 101, 726, 102, 16947, 16948, 7759, 743, 7828, 7826, 211, 7847, 7851, 7849, 212, 
16734, 18810, 766, 778, 17545, 17549, 17547, 7878, 7876, 7988, 7992, 7990, 215, 7998, 8002, 8000, 
787, 788, 800, 17435, 11393, 8015, 8019, 8017, 8068, 95, 11437, 13713, 739, 228, 229, 17324, 
17327, 17184, 17664, 17667, 156, 17591, 14050, 220, 221, 713, 18794, 16984, 18796, 7, 11319, 13715, 
16918, 712, 18224, 15076, 17020, 771, 784, 783, 13117, 17816, 9476, 17077, 17541, 17848, 770, 757, 
17466, 17567, 16914, 755, 767, 9517, 9521, 9519, 714, 103, 9604, 9606, 9586, 15933, 9653, 9655, 
** ... 213 like lines cut
**
** Element sets ++++++++++++++++++++++++++++++++++++++++++++
**
*Elset, Elset=Poincon
1, 2, 3, 4, 5, 6, 7, 8, 9, 10, 11, 12, 13, 14, 15, 16, 
17, 18, 19, 20, 21, 22, 23, 24, 25, 26, 27, 28, 29, 30, 31, 32, 
33, 34, 35, 36, 37, 38, 39, 40, 41, 42, 43, 44, 45, 46, 47, 48, 
49, 50, 51, 52, 53, 54, 55, 56, 57, 58, 59, 60, 61, 62, 63, 64, 
65, 66, 67, 68, 69, 70, 71, 72, 73, 74, 75, 76, 77, 78, 79, 80, 
81, 82, 83, 84, 85, 86, 87, 88, 89, 90, 91, 92, 93, 94, 95, 96, 
97, 98, 99, 100, 101, 102, 103, 104, 105, 106, 107, 108, 109, 110, 111, 112, 
113, 114, 115, 116, 117, 118, 119, 120, 121, 122, 123, 124, 125, 126, 127, 128, 
129, 130, 131, 132, 133, 134, 135, 136, 137, 138, 139, 140, 141, 142, 143, 144, 
145, 146, 147, 148, 149, 150, 151, 152, 153, 154, 155, 156, 157, 158, 159, 160, 
161, 162, 163, 164, 165, 166, 167, 168, 169, 170, 171, 172, 173, 174, 175, 176, 
177, 178, 179, 180, 181, 182, 183, 184, 185, 186, 187, 188, 189, 190, 191, 192, 
193, 194, 195, 196, 197, 198, 199, 200, 201, 202, 203, 204, 205, 206, 207, 208, 
209, 210, 211, 212, 213, 214, 215, 216, 217, 218, 219, 220, 221, 222, 223, 224, 
225, 226, 227, 228, 229, 230, 231, 232, 233, 234, 235, 236, 237, 238, 239, 240, 
241, 242, 243, 244, 245, 246, 247, 248, 249, 250, 251, 252, 253, 254, 255, 256, 
257, 258, 259, 260, 261, 262, 263, 264, 265, 266, 267, 268, 269, 270, 271, 272, 
273, 274, 275, 276, 277, 278, 279, 280, 281, 282, 283, 284, 285, 286, 287, 288, 
289, 290, 291, 292, 293, 294, 295, 296, 297, 298, 299, 300, 301, 302, 303, 304, 
305, 306, 307, 308, 309, 310, 311, 312, 313, 314, 315, 316, 317, 318, 319, 320, 
** ... 925 like lines cut
*Elset, Elset=Tole
35623, 35624, 35625, 35626, 35627, 35628, 35629, 35630, 35631, 35632, 35633, 35634, 35635, 35636, 35637, 35638, 
35639, 35640, 35641, 35642, 35643, 35644, 35645, 35646, 35647, 35648, 35649, 35650, 35651, 35652, 35653, 35654, 
35655, 35656, 35657, 35658, 35659, 35660, 35661, 35662, 35663, 35664, 35665, 35666, 35667, 35668, 35669, 35670, 
35671, 35672, 35673, 35674, 35675, 35676, 35677, 35678, 35679, 35680, 35681, 35682, 35683, 35684, 35685, 35686, 
35687, 35688, 35689, 35690, 35691, 35692, 35693, 35694, 35695, 35696, 35697, 35698, 35699, 35700, 35701, 35702, 
35703, 35704, 35705, 35706, 35707, 35708, 35709, 35710, 35711, 35712, 35713, 35714, 35715, 35716, 35717, 35718, 
35719, 35720, 35721, 35722, 35723, 35724, 35725, 35726, 35727, 35728, 35729, 35730, 35731, 35732, 35733, 35734, 
35735, 35736, 35737, 35738, 35739, 35740, 35741, 35742, 35743, 35744, 35745, 35746, 35747, 35748, 35749, 35750, 
35751, 35752, 35753, 35754, 35755, 35756, 35757, 35758, 35759, 35760, 35761, 35762, 35763, 35764, 35765, 35766, 
35767, 35768, 35769, 35770, 35771, 35772, 35773, 35774, 35775, 35776, 35777, 35778, 35779, 35780, 35781, 35782, 
35783, 35784, 35785, 35786, 35787, 35788, 35789, 35790, 35791, 35792, 35793, 35794, 35795, 35796, 35797, 35798, 
35799, 35800, 35801, 35802, 35803, 35804, 35805, 35806, 35807, 35808, 35809, 35810, 35811, 35812, 35813, 35814, 
35815, 35816, 35817, 35818, 35819, 35820, 35821, 35822, 35823, 35824, 35825, 35826, 35827, 35828, 35829, 35830, 
35831, 35832, 35833, 35834, 35835, 35836, 35837, 35838, 35839, 35840, 35841, 35842, 35843, 35844, 35845, 35846, 
35847, 35848, 35849, 35850, 35851, 35852, 35853, 35854, 35855, 35856, 35857, 35858, 35859, 35860, 35861, 35862, 
35863, 35864, 35865, 35866, 35867, 35868, 35869, 35870, 35871, 35872, 35873, 35874, 35875, 35876, 35877, 35878, 
35879, 35880, 35881, 35882, 35883, 35884, 35885, 35886, 35887, 35888, 35889, 35890, 35891, 35892, 35893, 35894, 
35895, 35896, 35897, 35898, 35899, 35900, 35901, 35902, 35903, 35904, 35905, 35906, 35907, 35908, 35909, 35910, 
35911, 35912, 35913, 35914, 35915, 35916, 35917, 35918, 35919, 35920, 35921, 35922, 35923, 35924, 35925, 35926, 
35927, 35928, 35929, 35930, 35931, 35932, 35933, 35934, 35935, 35936, 35937, 35938, 35939, 35940, 35941, 35942, 
** ... 318 like lines cut
*Elset, Elset=internal-1_Slave_plate_S1
39409, 39410, 39411, 39412, 39413, 39414, 39415, 39416, 39417, 39418, 39419, 39420, 39421, 39422, 39423, 39424, 
39425, 39426, 39427, 39428, 39429, 39430, 39431, 39432, 39433, 39434, 39435, 39436, 39437, 39438, 39439, 39440, 
39441, 39442, 39443, 39444, 39445, 39446, 39447, 39448, 39449, 39450, 39451, 39452, 39453, 39454, 39455, 39456, 
39457, 39458, 39459, 39460, 39461, 39462, 39463, 39465, 39407, 39467, 39469, 39408, 39470, 39471, 39472, 39473, 
39474, 39475, 39476, 39477, 39478, 39479, 39480, 39481, 39482, 39483, 39484, 39485, 39486, 39487, 39488, 39489, 
39490, 39491, 39492, 39493, 39494, 39495, 39496, 39497, 39498, 39499, 39500, 39501, 39502, 39503, 39504, 39505, 
39506, 39507, 39508, 39509, 39510, 39511, 39512, 39513, 39514, 39515, 39516, 39517, 39518, 39519, 39520, 39521, 
39522, 39523, 39525, 39527, 39529, 39468, 39530, 39531, 39532, 39533, 39534, 39535, 39536, 39537, 39538, 39539, 
39540, 39541, 39542, 39543, 39544, 39545, 39546, 39547, 39548, 39549, 39550, 39551, 39552, 39553, 39554, 39555, 
39556, 39557, 39558, 39559, 39560, 39561, 39562, 39563, 39564, 39565, 39566, 39567, 39568, 39569, 39570, 39571, 
39572, 39573, 39574, 39575, 39576, 39577, 39578, 39579, 39580, 39581, 39582, 39583, 39585, 39587, 39589, 39528, 
39590, 39591, 39592, 39593, 39594, 39595, 39596, 39597, 39598, 39599, 39600, 39601, 39602, 39603, 39604, 39605, 
39606, 39607, 39608, 39609, 39610, 39611, 39612, 39613, 39614, 39615, 39616, 39617, 39618, 39619, 39620, 39621, 
39622, 39623, 39624, 39625, 39626, 39627, 39628, 39629, 39630, 39631, 39632, 39633, 39634, 39635, 39636, 39637, 
39638, 39639, 39640, 39641, 39642, 39643, 39645, 39647, 39649, 39588, 39650, 39651, 39652, 39653, 39654, 39655, 
39656, 39657, 39658, 39659, 39660, 39661, 39662, 39663, 39664, 39665, 39666, 39667, 39668, 39669, 39670, 39671, 
39672, 39673, 39674, 39675, 39676, 39677, 39678, 39679, 39680, 39681, 39682, 39683, 39684, 39685, 39686, 39687, 
39688, 39689, 39690, 39691, 39692, 39693, 39694, 39695, 39696, 39697, 39698, 39699, 39700, 39701, 39702, 39703, 
39705, 39707, 39709, 39648, 39710, 39711, 39712, 39713, 39714, 39715, 39716, 39717, 39718, 39719, 39720, 39721, 
39722, 39723, 39724, 39725, 39726, 39727, 39728, 39729, 39730, 39731, 39732, 39733, 39734, 39735, 39736, 39737, 
** ... 93 like lines cut
*Elset, Elset=internal-2_Master_punch_S3
6490, 5569, 8319, 2376, 5840, 6141, 4085, 5791, 321, 5657, 329, 4245, 5887, 7804, 8617, 2625, 
1687, 6013, 5731, 8142, 1044, 9993, 5656, 6524, 1610, 8495, 674, 5992, 6927, 5833, 3292, 6856, 
4136, 6146, 4068, 5660, 6021, 6728, 5814, 6668, 5526, 6123, 1291, 6162, 6879, 6011, 5998, 1693, 
7763, 5589, 1743, 1747, 6769, 5925, 1753, 1790, 5785, 1793, 5848, 1799, 1820, 6168, 5771, 5991, 
6078, 6760, 4022, 5572, 6378, 6805, 6119, 5934, 2333, 2362, 5060, 2385, 2597, 6151, 2662, 2682, 
7100, 8429, 5623, 5822, 6080, 8621, 5531, 3017, 3056, 7959, 6131, 3128, 5558, 4840, 8669, 3815, 
8619, 5702, 3538, 5851, 3575, 6971, 5769, 12859, 5567, 3707, 3737, 5932, 5977, 5841, 3838, 6163, 
3840, 5729, 3850, 3879, 4027, 4028, 6059, 4110, 6112, 5768, 5921, 4131, 4186, 5562, 4208, 5951, 
4243, 4264, 4299, 4508, 5958, 5873, 5870, 7556, 6289, 4939, 8193, 10124, 6446, 5165, 5477, 7946, 
5507, 5524, 6607, 5583, 5587, 5755, 5597, 5600, 5607, 6749, 11987, 11145, 5627, 5628, 5629, 5630, 
5635, 5648, 5650, 8642, 5861, 5686, 5705, 5714, 7460, 5715, 5758, 5747, 5750, 5767, 5777, 5834, 
5770, 5774, 6587, 5789, 5984, 5830, 5862, 8315, 5895, 5904, 5912, 10130, 5913, 5915, 6934, 5927, 
5929, 6935, 5933, 5942, 5945, 6001, 5955, 6117, 6129, 6000, 6144, 6005, 6006, 6069, 6147, 6030, 
6040, 6066, 6085, 6087, 6103, 6127, 6135, 6155, 6448, 6460, 6519, 8200, 6575, 6580, 6596, 6598, 
8157, 6703, 6719, 6826, 6894, 7001, 8220, 7501, 7526, 7560, 7894, 8186, 8618, 8646, 8462, 6182, 
6855, 5520, 9084, 8468, 11682, 5492, 6883, 2413, 9795, 5464, 8472, 8011, 6821, 8459, 7955, 6673, 
9801, 9805, 160, 843, 8499, 8734, 11706, 1468, 1826, 7942, 4270, 7990, 5517, 5614, 5640, 6647, 
6739, 5917, 9083, 6606, 8541, 7949, 6768, 8012, 152, 8454, 1901, 595, 6969, 9229, 1347, 6510, 
6814, 11990, 1810, 6371, 11851, 7971, 3790, 3898, 7972, 7943, 8209, 7957, 6724, 7968, 7980, 10002, 
3196, 6780, 6295, 55, 8109, 6488, 1806, 737, 6362, 6491, 118, 6458, 6278, 6864, 253, 8219, 
** ... 85 like lines cut
*Elset, Elset=internal-3_Master_punch_S2
6102, 6572, 6169, 2856, 4378, 4031, 5735, 6438, 4572, 5944, 9968, 5489, 2974, 6306, 2715, 5307, 
6314, 6392, 4311, 4577, 1691, 7024, 4795, 5246, 2864, 4974, 4665, 4721, 4810, 4879, 5385, 8372, 
5350, 8376, 4238, 5641, 2365, 3854, 3931, 4400, 8367, 8361, 8341, 8362, 8853, 8346, 2109, 5538, 
589, 8141, 2709, 10029, 8038, 2451, 8262, 8248, 408
*Elset, Elset=internal-4_Master_punch_S1
13066, 11678, 4130, 9641, 10296, 9233, 8540, 13971, 12940, 5584, 947, 8169, 8835, 11399, 12937, 10148, 
8427, 12342, 8415, 4141, 2471, 8371, 8516, 8411, 5976, 8603, 700, 10318, 2195, 3810, 3868, 14589, 
14420, 11103, 5228, 2322, 2585, 3171, 12681
*Elset, Elset=internal-5_Master_punch_S4
8273, 3768, 5500, 11793, 8221, 5994, 7155, 8128, 8494, 8498, 5509, 9997, 8493, 8467, 1055, 6638, 
7042, 13962, 10711, 10656, 10734, 6551, 7065, 8941, 8324, 4328, 13261, 4772, 5279, 12997, 7292, 7049, 
7059, 5448, 8509, 7361, 8582, 2225, 8386, 2550, 13630, 9868, 3336, 3381, 3421, 3539, 3338, 2624, 
12271, 2473, 1987, 2507, 9564, 2112, 2436, 5622, 9073, 13038, 1272, 8271, 8253, 8314
**
** Surfaces ++++++++++++++++++++++++++++++++++++++++++++++++
**
*Surface, Name=Slave_plate, Type=Element
internal-1_Slave_plate_S1, S1
*Surface, Name=Master_punch, Type=Element
internal-2_Master_punch_S3, S3
internal-3_Master_punch_S2, S2
internal-4_Master_punch_S1, S1
internal-5_Master_punch_S4, S4
**
** Materials +++++++++++++++++++++++++++++++++++++++++++++++
**
*Material, Name=Al-St
*Elastic
211000, 0.33
*Plastic
91.30000305,	0
109.9302902,	0.001
128.3060303,	0.002
140.4479523,	0.003
149.753418,	0.004
157.3938141,	0.005
163.9249573,	0.006
169.657959,	0.007
174.7859192,	0.008
179.4375916,	0.009
183.703476,	0.01
214.4109955,	0.02
225.3502197,	0.025
234.7012482,	0.029999999
242.9095154,	0.035
250.2515259,	0.039999999
256.9116211,	0.045000002
263.0193481,	0.050000001
268.6694336,	0.055
273.9334717,	0.059999999
** ... 202 like lines cut
*Material, Name=Steel
*Elastic
200000, 0.3
**
** Sections ++++++++++++++++++++++++++++++++++++++++++++++++
**
*Solid section, Elset=Punch, Material=Steel
*Solid section, Elset=Plate, Material=Al-St
**
** Constraints +++++++++++++++++++++++++++++++++++++++++++++
**
*Rigid body, Nset=Npnch, Ref node=59955, Rot node=59956
** contact 
*Contact Pair, Interaction=SI1, Type=Surface To Surfacesheetdown
Slave_plate, Master_punch
*Surface Interaction, Name=SI1
*Surface Behavior, Pressure-Overclosure=Linear
10550000
*Friction
0.25, 1055000
**
** Steps +++++++++++++++++++++++++++++++++++++++++++++++++++
**
**
** Step-1 ++++++++++++++++++++++++++++++++++++++++++++++++++
**
*Step, Nlgeom, Inc=100
*Static
0.0001, 1, 1E-08, 1E+30
**
** Boundary conditions +++++++++++++++++++++++++++++++++++++
**
*Boundary, op=NEW
** Name: BC-1
*Boundary
Dirich, 1, 1, 0
Dirich, 2, 2, 0
Dirich, 3, 3, 0
Dirich, 4, 4, 0
Dirich, 5, 5, 0
Dirich, 6, 6, 0
** Name: BC-2
*Boundary
59955, 1, 1, 0
59955, 2, 2, -10
59955, 3, 3, 0
59956, 1, 1, 0
59956, 2, 2, 0
59956, 3, 3, 0
**
** Loads +++++++++++++++++++++++++++++++++++++++++++++++++++
**
*Dload, op=NEW
*Cload, op=NEW
**
** Field outputs +++++++++++++++++++++++++++++++++++++++++++
**
*Node file
U
*El file
E, S, ERR
**
** End step ++++++++++++++++++++++++++++++++++++++++++++++++
**
*End step
**
** Step-2 ++++++++++++++++++++++++++++++++++++++++++++++++++
**
*Step, Nlgeom, Inc=100
*Static
0.001, 1, 1E-08, 1E+30
**
** Boundary conditions +++++++++++++++++++++++++++++++++++++
**
*Boundary, op=NEW
** Name: BC-1
*Boundary
Dirich, 1, 1, 0
Dirich, 2, 2, 0
Dirich, 3, 3, 0
Dirich, 4, 4, 0
Dirich, 5, 5, 0
Dirich, 6, 6, 0
** Name: BC-2
*Boundary
59955, 1, 1, 0
59955, 2, 2, 1
59955, 3, 3, 0
59956, 1, 1, 0
59956, 2, 2, 0
59956, 3, 3, 0
**
** Loads +++++++++++++++++++++++++++++++++++++++++++++++++++
**
*Dload, op=NEW
*Cload, op=NEW
**
** Field outputs +++++++++++++++++++++++++++++++++++++++++++
**
*Node file
U
*El file
E, S, ERR
**
** End step ++++++++++++++++++++++++++++++++++++++++++++++++
**
*End step
