*NODE, NSET=Nall
1, -0.5, 0.5, 0.5
2, 0.5, 0.5, 0.5
3, 0.5, 0.5, -0.5
4, -0.5, 0.5, -0.5
5, -0.5, -0.5, 0.5
6, 0.5, -0.5, 0.5
7, 0.5, -0.5, -0.5
8, -0.5, -0.5, -0.5
9, -0.5, 1.5, 0.5
10, 0.5, 1.5, 0.5
11, 0.5, 1.5, -0.5
12, -0.5, 1.5, -0.5
13, 0.5, 1.5, 0.5
14, 1.5, 1.5, 0.5
15, 1.5, 1.5, -0.5
16, 0.5, 1.5, -0.5
17, 0.5, 0.5, 0.5
18, 1.5, 0.5, 0.5
19, 1.5, 0.5, -0.5
20, 0.5, 0.5, -0.5
** ... 40 like lines cut
*ELEMENT, TYPE=C3D8, ELSET=Eall
1, 2, 1, 4, 3, 6, 5, 8, 7
4, 10, 9, 12, 11, 2, 1, 4, 3
3, 14, 13, 16, 15, 18, 17, 20, 19
2, 22, 21, 24, 23, 26, 25, 28, 27
5, 30, 29, 32, 31, 34, 33, 36, 35
6, 38, 37, 40, 39, 42, 41, 44, 43
7, 46, 45, 48, 47, 50, 49, 52, 51
8, 54, 53, 56, 55, 58, 57, 60, 59
*MATERIAL,NAME=EL
*ELASTIC
210000.,.3
*DENSITY
7.8E-9
*SOLID SECTION,ELSET=Eall,MATERIAL=EL
*STEP
*STATIC
*CLOAD
1,2,10.0
*NODE PRINT,NSET=Nall
U,RF
*EL PRINT,ELSET=Eall
S
*NODE FILE, output=3D
U, RF
*EL FILE
S, E
*END STEP
