*************************************                                           
*HEADING                                                                        
ICEM - ABAQUS INTERFACES VERSION 4.3.1                                          
*************************************                                           
*NODE, NSET=All
1,  0.00000000E+00,  0.00000000E+00,  0.00000000E+00
2,  5.00000000E-01,  0.00000000E+00,  0.00000000E+00
3,  0.00000000E+00,  5.00000000E-01,  0.00000000E+00
4,  5.00000000E-01,  5.00000000E-01,  0.00000000E+00
5,  0.00000000E+00,  0.00000000E+00,  5.00000000E-01
6,  5.00000000E-01,  0.00000000E+00,  5.00000000E-01
7,  0.00000000E+00,  5.00000000E-01,  5.00000000E-01
8,  5.00000000E-01,  5.00000000E-01,  5.00000000E-01
9,  0.00000000E+00,  0.00000000E+00,  1.00000000E+00
10,  5.00000000E-01,  0.00000000E+00,  1.00000000E+00
11,  0.00000000E+00,  5.00000000E-01,  1.00000000E+00
12,  5.00000000E-01,  5.00000000E-01,  1.00000000E+00
13,  0.00000000E+00,  0.00000000E+00,  1.50000000E+00
14,  5.00000000E-01,  0.00000000E+00,  1.50000000E+00
15,  0.00000000E+00,  5.00000000E-01,  1.50000000E+00
16,  5.00000000E-01,  5.00000000E-01,  1.50000000E+00
17,  0.00000000E+00,  0.00000000E+00,  2.00000000E+00
18,  5.00000000E-01,  0.00000000E+00,  2.00000000E+00
19,  0.00000000E+00,  5.00000000E-01,  2.00000000E+00
20,  5.00000000E-01,  5.00000000E-01,  2.00000000E+00
** ... 16701 like lines cut
*ELEMENT,TYPE=C3D20R,ELSET=SOLID_ELSET                                           
      3200,      3626,      4535,      4544,      3635,      3627,      4536,      4545,      3636,     16692,     16716,     16718,     14099,     16695,     16719,     16721,
     14102,     14077,     16694,     16720,     14103
      3199,      3625,      4534,      4543,      3634,      3626,      4535,      4544,      3635,     16689,     16713,     16715,     14096,     16692,     16716,     16718,
     14099,     14074,     16691,     16717,     14100
      3198,      3624,      4533,      4542,      3633,      3625,      4534,      4543,      3634,     16686,     16710,     16712,     14093,     16689,     16713,     16715,
     14096,     14071,     16688,     16714,     14097
      3197,      3623,      4532,      4541,      3632,      3624,      4533,      4542,      3633,     16683,     16707,     16709,     14090,     16686,     16710,     16712,
     14093,     14068,     16685,     16711,     14094
      3196,      3622,      4531,      4540,      3631,      3623,      4532,      4541,      3632,     16680,     16704,     16706,     14087,     16683,     16707,     16709,
     14090,     14065,     16682,     16708,     14091
      3195,      3621,      4530,      4539,      3630,      3622,      4531,      4540,      3631,     16677,     16701,     16703,     14084,     16680,     16704,     16706,
     14087,     14062,     16679,     16705,     14088
      3194,      3620,      4529,      4538,      3629,      3621,      4530,      4539,      3630,     16674,     16697,     16700,     14080,     16677,     16701,     16703,
     14084,     14059,     16676,     16702,     14085
      3193,      3619,      4528,      4537,      3628,      3620,      4529,      4538,      3629,     16672,     16696,     16698,     14079,     16674,     16697,     16700,
     14080,     14056,     16673,     16699,     14082
      3192,      3617,      4526,      4535,      3626,      3618,      4527,      4536,      3627,     16666,     16690,     16692,     14073,     16669,     16693,     16695,
     14076,     14051,     16668,     16694,     14077
      3191,      3616,      4525,      4534,      3625,      3617,      4526,      4535,      3626,     16663,     16687,     16689,     14070,     16666,     16690,     16692,
     14073,     14048,     16665,     16691,     14074
** ... 6380 like lines cut
*NSET,NSET=BEAM_NSET                                                            
         1,         2,         3,         4,         5,         7,         9,        11,        13,        15,        17,        19,        21,        23,        25,        27,
        29,        31,        33,        34,        35,        36,        37,        38,        39,        41,        43,        45,        47,        49,        51,        53,
        54,        55,        56,        57,        59,        61,        63,        65,        67,        69,        71,        72,        73,        74,        75,        77,
        79,        81,        83,        85,        87,        89,        90,        91,        92,        93,        95,        97,        99,       101,       103,       105,
       107,       108,       109,       110,       111,       113,       115,       117,       119,       121,       123,       125,       126,       127,       128,       129,
       131,       133,       135,       137,       139,       141,       143,       144,       145,       146,       147,       149,       151,       153,       155,       157,
       159,       161,       162,       163,       164,       165,       167,       169,       171,       173,       175,       177,       179,       180,       181,       182,
       183,       185,       187,       189,       191,       193,       195,       197,       198,       199,       200,       201,       203,       205,       207,       209,
       211,       213,       215,       216,       217,       218,       219,       221,       223,       225,       227,       229,       231,       233,       234,       235,
       236,       237,       239,       241,       243,       245,       247,       249,       251,       252,       253,       254,       255,       257,       259,       261,
       263,       265,       267,       269,       270,       271,       272,       273,       275,       277,       279,       281,       283,       285,       287,       288,
       289,       290,       291,       293,       295,       297,       299,       301,       303,       305,       306,       307,       308,       309,       311,       313,
       315,       317,       319,       321,       323,       324,       325,       326,       327,       329,       331,       333,       335,       337,       339,       341,
       342,       343,       344,       345,       347,       349,       351,       353,       355,       357,       359,       360,       361,       362,       363,       365,
       367,       369,       371,       373,       375,       377,       378,       379,       380,       381,       383,       385,       387,       389,       391,       393,
       395,       396,       397,       398,       399,       401,       403,       405,       407,       409,       411,       413,       414,       415,       416,       417,
       419,       421,       423,       425,       427,       429,       431,       432,       433,       434,       435,       437,       439,       441,       443,       445,
       447,       449,       450,       451,       452,       453,       455,       457,       459,       461,       463,       465,       467,       468,       469,       470,
       471,       473,       475,       477,       479,       481,       483,       485,       486,       487,       488,       489,       491,       493,       495,       497,
       499,       501,       503,       504,       505,       506,       507,       509,       511,       513,       515,       517,       519,       521,       522,       523,
** ... 433 like lines cut
*NSET,NSET=CSD-FIXED-WALLS                                                 
         1,         2,         5,         6,         9,        10,        13,        14,        17,        18,        21,        22,        25,        26,        29,        30,
        33,        34,      1819,      1821,      1823,      1825,      1827,      1829,      1831,      1833,      1835,      2728,      2730,      2732,      2734,      2736,
      2738,      2740,      2742,      2744,      3637,      3639,      3641,      3643,      3645,      3647,      3649,      3651,      3653,      4546,      4547,      4548,
      4550,      4558,      4559,      4560,      4566,      4567,      4568,      4574,      4575,      4576,      4582,      4583,      4584,      4590,      4591,      4592,
      4598,      4599,      4600,      4606,      4607,      4608,      8871,      8872,      8874,      8879,      8880,      8884,      8885,      8889,      8890,      8894,
      8895,      8899,      8900,      8904,      8905,      8909,      8910,     11488,     11489,     11491,     11496,     11497,     11501,     11502,     11506,     11507,
     11511,     11512,     11516,     11517,     11521,     11522,     11526,     11527,     14105,     14106,     14108,     14113,     14114,     14118,     14119,     14123,
     14124,     14128,     14129,     14133,     14134,     14138,     14139,     14143,     14144
*NSET,NSET=SOLID_NSET                                                           
         1,         2,         3,         4,         5,         6,         7,         8,         9,        10,        11,        12,        13,        14,        15,        16,
        17,        18,        19,        20,        21,        22,        23,        24,        25,        26,        27,        28,        29,        30,        31,        32,
        33,        34,        35,        36,        37,        38,        39,        40,        41,        42,        43,        44,        45,        46,        47,        48,
        49,        50,        51,        52,        53,        54,        55,        56,        57,        58,        59,        60,        61,        62,        63,        64,
        65,        66,        67,        68,        69,        70,        71,        72,        73,        74,        75,        76,        77,        78,        79,        80,
        81,        82,        83,        84,        85,        86,        87,        88,        89,        90,        91,        92,        93,        94,        95,        96,
        97,        98,        99,       100,       101,       102,       103,       104,       105,       106,       107,       108,       109,       110,       111,       112,
       113,       114,       115,       116,       117,       118,       119,       120,       121,       122,       123,       124,       125,       126,       127,       128,
       129,       130,       131,       132,       133,       134,       135,       136,       137,       138,       139,       140,       141,       142,       143,       144,
       145,       146,       147,       148,       149,       150,       151,       152,       153,       154,       155,       156,       157,       158,       159,       160,
       161,       162,       163,       164,       165,       166,       167,       168,       169,       170,       171,       172,       173,       174,       175,       176,
       177,       178,       179,       180,       181,       182,       183,       184,       185,       186,       187,       188,       189,       190,       191,       192,
       193,       194,       195,       196,       197,       198,       199,       200,       201,       202,       203,       204,       205,       206,       207,       208,
       209,       210,       211,       212,       213,       214,       215,       216,       217,       218,       219,       220,       221,       222,       223,       224,
       225,       226,       227,       228,       229,       230,       231,       232,       233,       234,       235,       236,       237,       238,       239,       240,
       241,       242,       243,       244,       245,       246,       247,       248,       249,       250,       251,       252,       253,       254,       255,       256,
       257,       258,       259,       260,       261,       262,       263,       264,       265,       266,       267,       268,       269,       270,       271,       272,
       273,       274,       275,       276,       277,       278,       279,       280,       281,       282,       283,       284,       285,       286,       287,       288,
       289,       290,       291,       292,       293,       294,       295,       296,       297,       298,       299,       300,       301,       302,       303,       304,
       305,       306,       307,       308,       309,       310,       311,       312,       313,       314,       315,       316,       317,       318,       319,       320,
** ... 1026 like lines cut


*NSET,NSET=LOADS_NSET
  1817, 1801

*********************************************


*BOUNDARY
CSD-FIXED-WALLS, 1,3


*MATERIAL, NAME=mat0
*ELASTIC
  410.0 , 0.3
*DENSITY
1.19E-6

*SOLID SECTION,ELSET=SOLID_ELSET,MATERIAL=mat0

*AMPLITUDE,NAME=A1
0.0,0.0,1.0,1.0,3.0,1.0

********************************************
*STEP,INC=1
*DYNAMIC, DIRECT, SOLVER=SPOOLES
2.E-2, 2.E-2


********************************************
**
**
*CLOAD, AMPLITUDE=A1
LOADS_NSET, 1, 0.200000 
**
*NODE FILE
U
*NODE PRINT, NSET=LOADS_NSET
U
*EL FILE,ELSET=SOLID_ELSET
S

**
**
*END STEP

