**HEADING
**Model: DISKS
*NODE, NSET=Disk1
1, 3, 100, 0
2, 3.25, 100, 0
3, 3.5, 100, 0
4, 3.75, 100, 0
5, 4, 100, 0
6, 4.25, 100, 0
7, 4.5, 100, 0
8, 4.75, 100, 0
9, 5, 100, 0
10, 5.25, 100, 0
11, 5.5, 100, 0
12, 5.75, 100, 0
13, 6, 100, 0
14, 6.25, 100, 0
15, 6.5, 100, 0
16, 6.75, 100, 0
17, 7, 100, 0
18, 7.25, 100, 0
19, 7.5, 100, 0
20, 7.75, 100, 0
** ... 67 like lines cut
*NODE, NSET=Disk2
88, 3, 100.3, 0
89, 3.25, 100.3, 0
90, 3.5, 100.3, 0
91, 3.75, 100.3, 0
92, 4, 100.3, 0
93, 4.25, 100.3, 0
94, 4.5, 100.3, 0
95, 4.75, 100.3, 0
96, 5, 100.3, 0
97, 5.25, 100.3, 0
98, 5.5, 100.3, 0
99, 5.75, 100.3, 0
100, 6, 100.3, 0
101, 6.25, 100.3, 0
102, 6.5, 100.3, 0
103, 6.75, 100.3, 0
104, 7, 100.3, 0
105, 7.25, 100.3, 0
106, 7.5, 100.3, 0
107, 3, 100.425, 0
** ... 37 like lines cut
*NODE, NSET=Disk3
145, 3, 100.55, 0
146, 3.25, 100.55, 0
147, 3.5, 100.55, 0
148, 3.75, 100.55, 0
149, 4, 100.55, 0
150, 4.25, 100.55, 0
151, 4.5, 100.55, 0
152, 4.75, 100.55, 0
153, 5, 100.55, 0
154, 5.25, 100.55, 0
155, 5.5, 100.55, 0
156, 5.75, 100.55, 0
157, 6, 100.55, 0
158, 3, 100.675, 0
159, 3.25, 100.675, 0
160, 3.5, 100.675, 0
161, 3.75, 100.675, 0
162, 4, 100.675, 0
163, 4.25, 100.675, 0
164, 4.5, 100.675, 0
** ... 19 like lines cut
*NODE, NSET=Disk4
184, 3, 100.8, 0
185, 3.25, 100.8, 0
186, 3.5, 100.8, 0
187, 3.75, 100.8, 0
188, 4, 100.8, 0
189, 4.25, 100.8, 0
190, 4.5, 100.8, 0
191, 4.75, 100.8, 0
192, 5, 100.8, 0
193, 3, 100.925, 0
194, 3.25, 100.925, 0
195, 3.5, 100.925, 0
196, 3.75, 100.925, 0
197, 4, 100.925, 0
198, 4.25, 100.925, 0
199, 4.5, 100.925, 0
200, 4.75, 100.925, 0
201, 5, 100.925, 0
202, 3, 101.05, 0
203, 3.25, 101.05, 0
** ... 7 like lines cut
*NODE, NSET=Disk5
211, 3, 101.05, 0
212, 3.25, 101.05, 0
213, 3.5, 101.05, 0
214, 3.75, 101.05, 0
215, 4, 101.05, 0
216, 4.25, 101.05, 0
217, 4.5, 101.05, 0
218, 4.75, 101.05, 0
219, 5, 101.05, 0
220, 5.25, 101.05, 0
221, 5.5, 101.05, 0
222, 5.75, 101.05, 0
223, 6, 101.05, 0
224, 3, 101.15, 0
225, 3.25, 101.15, 0
226, 3.5, 101.15, 0
227, 3.75, 101.15, 0
228, 4, 101.15, 0
229, 4.25, 101.15, 0
230, 4.5, 101.15, 0
** ... 19 like lines cut
*NODE, NSET=Disk6
250, 3, 101.25, 0
251, 3.25, 101.25, 0
252, 3.5, 101.25, 0
253, 3.75, 101.25, 0
254, 4, 101.25, 0
255, 4.25, 101.25, 0
256, 4.5, 101.25, 0
257, 4.75, 101.25, 0
258, 5, 101.25, 0
259, 5.25, 101.25, 0
260, 5.5, 101.25, 0
261, 5.75, 101.25, 0
262, 6, 101.25, 0
263, 6.25, 101.25, 0
264, 6.5, 101.25, 0
265, 6.75, 101.25, 0
266, 7, 101.25, 0
267, 7.25, 101.25, 0
268, 7.5, 101.25, 0
269, 3, 101.35, 0
** ... 37 like lines cut
*NODE, NSET=Disk7
307, 3, 101.45, 0
307, 3, 101.45, 0
308, 3.25, 101.45, 0
308, 3.25, 101.45, 0
309, 3.5, 101.45, 0
309, 3.5, 101.45, 0
310, 3.75, 101.45, 0
310, 3.75, 101.45, 0
311, 4, 101.45, 0
311, 4, 101.45, 0
312, 4.25, 101.45, 0
312, 4.25, 101.45, 0
313, 4.5, 101.45, 0
313, 4.5, 101.45, 0
314, 4.75, 101.45, 0
314, 4.75, 101.45, 0
315, 5, 101.45, 0
315, 5, 101.45, 0
316, 5.25, 101.45, 0
316, 5.25, 101.45, 0
** ... 91 like lines cut
*NODE, NSET=RigidDisk
394, 3, 101.55, 0
395, 3.2, 101.55, 0
396, 3.4, 101.55, 0
397, 3.6, 101.55, 0
398, 3.8, 101.55, 0
399, 4, 101.55, 0
400, 4.2, 101.55, 0
401, 4.4, 101.55, 0
402, 4.6, 101.55, 0
403, 4.8, 101.55, 0
404, 5, 101.55, 0
405, 3, 101.675, 0
406, 3.2, 101.675, 0
407, 3.4, 101.675, 0
408, 3.6, 101.675, 0
409, 3.8, 101.675, 0
410, 4, 101.675, 0
411, 4.2, 101.675, 0
412, 4.4, 101.675, 0
413, 4.6, 101.675, 0
** ... 13 like lines cut
*ELEMENT, TYPE=CAX8, ELSET=Eall
1,1,3,61,59,2,32,60,30
2,3,5,63,61,4,34,62,32
3,5,7,65,63,6,36,64,34
4,7,9,67,65,8,38,66,36
5,9,11,69,67,10,40,68,38
6,11,13,71,69,12,42,70,40
7,13,15,73,71,14,44,72,42
8,15,17,75,73,16,46,74,44
9,17,19,77,75,18,48,76,46
10,19,21,79,77,20,50,78,48
11,21,23,81,79,22,52,80,50
12,23,25,83,81,24,54,82,52
13,25,27,85,83,26,56,84,54
14,27,29,87,85,28,58,86,56
15,88,90,128,126,89,109,127,107
16,90,92,130,128,91,111,129,109
17,92,94,132,130,93,113,131,111
18,94,96,134,132,95,115,133,113
19,96,98,136,134,97,117,135,115
20,98,100,138,136,99,119,137,117
** ... 42 like lines cut
*ELEMENT, TYPE=CAX8, ELSET=ERigidDisc
63,394,396,418,416,395,407,417,405
64,396,398,420,418,397,409,419,407
65,398,400,422,420,399,411,421,409
66,400,402,424,422,401,413,423,411
67,402,404,426,424,403,415,425,413
*NSET,NSET=ClampNode,GENERATE
417, 426, 1
*TIME POINTS,NAME=T1
0,0.01,0.04,0.09,0.16,0.25,0.36,0.49,0.64,0.81,1,
*Elset, elset=ElEDisk1,generate
1,14,1,
*Elset, elset=ElEDisk2,generate
15,23,1,
*Elset, elset=ElEDisk3,generate
24,29,1,
*Elset, elset=ElEDisk4,generate
30,33,1,
*Elset, elset=ElEDisk5,generate
34,39,1,
*Elset, elset=ElEDisk6,generate
40,48,1,
*Elset, elset=ElEDisk7,generate
49,62,1,
*SURFACE,type=ELEMENT, name=Top_Disk1
ELEDisk1, S3
*SURFACE,type=ELEMENT, name=Bot_Disk1
ELEDisk1, S1
*SURFACE,type=ELEMENT, name=Top_Disk2
ELEDisk2, S3
*SURFACE,type=ELEMENT, name=Bot_Disk2
ELEDisk2, S1
*SURFACE,type=ELEMENT, name=Top_Disk3
ELEDisk3, S3
*SURFACE,type=ELEMENT, name=Bot_Disk3
ELEDisk3, S1
*SURFACE,type=ELEMENT, name=Top_Disk4
ELEDisk4, S3
*SURFACE,type=ELEMENT, name=Bot_Disk4
ELEDisk4, S1
*SURFACE,type=ELEMENT, name=Top_Disk5
ELEDisk5, S3
*SURFACE,type=ELEMENT, name=Bot_Disk5
ELEDisk5, S1
*SURFACE,type=ELEMENT, name=Top_Disk6
ELEDisk6, S3
*SURFACE,type=ELEMENT, name=Bot_Disk6
ELEDisk6, S1
*SURFACE,type=ELEMENT, name=Top_Disk7
ELEDisk7, S3
*SURFACE,type=ELEMENT, name=Bot_Disk7
ELEDisk7, S1
*SURFACE,type=ELEMENT, name=Top_SRD
ERigidDisc, S3
*SURFACE,type=ELEMENT, name=Bot_SRD
ERigidDisc, S1
*SURFACE INTERACTION, name=ContactProp1
*SURFACE BEHAVIOR,PRESSURE-OVERCLOSURE=linear
100000.000000,0.000000
*CONTACT PAIR, interaction=ContactProp1, TYPE=SURFACE TO SURFACE
Top_Disk1, Bot_Disk2
*CONTACT PAIR, interaction=ContactProp1, TYPE=SURFACE TO SURFACE
Top_Disk1, Bot_Disk3
*CONTACT PAIR, interaction=ContactProp1, TYPE=SURFACE TO SURFACE
Top_Disk1, Bot_Disk4
*CONTACT PAIR, interaction=ContactProp1, TYPE=SURFACE TO SURFACE
Top_Disk1, Bot_Disk5
*CONTACT PAIR, interaction=ContactProp1, TYPE=SURFACE TO SURFACE
Top_Disk1, Bot_Disk6
*CONTACT PAIR, interaction=ContactProp1, TYPE=SURFACE TO SURFACE
Top_Disk1, Bot_Disk7
*CONTACT PAIR, interaction=ContactProp1, TYPE=SURFACE TO SURFACE
Top_Disk2, Bot_Disk3
*CONTACT PAIR, interaction=ContactProp1, TYPE=SURFACE TO SURFACE
Top_Disk2, Bot_Disk4
*CONTACT PAIR, interaction=ContactProp1, TYPE=SURFACE TO SURFACE
Top_Disk2, Bot_Disk5
*CONTACT PAIR, interaction=ContactProp1, TYPE=SURFACE TO SURFACE
Top_Disk2, Bot_Disk6
*CONTACT PAIR, interaction=ContactProp1, TYPE=SURFACE TO SURFACE
Top_Disk2, Bot_Disk7
*CONTACT PAIR, interaction=ContactProp1, TYPE=SURFACE TO SURFACE
Top_Disk3, Bot_Disk4
*CONTACT PAIR, interaction=ContactProp1, TYPE=SURFACE TO SURFACE
Top_Disk4, Bot_Disk5
*CONTACT PAIR, interaction=ContactProp1, TYPE=SURFACE TO SURFACE
Top_Disk5, Bot_Disk6
*CONTACT PAIR, interaction=ContactProp1, TYPE=SURFACE TO SURFACE
Top_Disk6, Bot_Disk7
*CONTACT PAIR, interaction=ContactProp1, TYPE=SURFACE TO SURFACE
Top_Disk7, Bot_SRD
*NSET,NSET=FIXPT,GENERATE
1,29, 1
*MATERIAL,NAME=ESteel
*ELASTIC
210000, 0.3
*SOLID SECTION,ELSET=Eall,MATERIAL=ESteel
*SOLID SECTION,ELSET=ERigidDisc,MATERIAL=ESteel
*STEP,NLGEOM
*STATIC,SOLVER=SPOOLES
*BOUNDARY
FIXPT, 1, 2
*BOUNDARY
ClampNode, 1, 2
*NSET,NSET=NodeCF
389
*CLOAD
NodeCF,2, -1000
*NODE PRINT,  NSET=NodeCF,TIME POINTS=T1
U,RF
*NODE FILE,TIME POINTS=T1
U
*EL FILE,TIME POINTS=T1
S
*END STEP
