*NODE, NSET=NKlocek
       1,1.000000000000e+001,0.000000000000e+000,0.000000000000e+000
       2,1.000000000000e+001,-3.000000000000e-002,0.000000000000e+000
       3,1.005000000000e+001,-3.000000000000e-002,0.000000000000e+000
       4,1.005000000000e+001,0.000000000000e+000,0.000000000000e+000
       5,1.000000000000e+001,-6.000000000000e-002,0.000000000000e+000
       6,1.005000000000e+001,-6.000000000000e-002,0.000000000000e+000
       7,1.000000000000e+001,-9.000000000000e-002,0.000000000000e+000
       8,1.005000000000e+001,-9.000000000000e-002,0.000000000000e+000
       9,1.000000000000e+001,-1.200000000000e-001,0.000000000000e+000
      10,1.005000000000e+001,-1.200000000000e-001,0.000000000000e+000
      11,1.000000000000e+001,-1.500000000000e-001,0.000000000000e+000
      12,1.005000000000e+001,-1.500000000000e-001,0.000000000000e+000
      13,1.000000000000e+001,-1.800000000000e-001,0.000000000000e+000
      14,1.005000000000e+001,-1.800000000000e-001,0.000000000000e+000
      15,1.000000000000e+001,-2.100000000000e-001,0.000000000000e+000
      16,1.005000000000e+001,-2.100000000000e-001,0.000000000000e+000
      17,1.000000000000e+001,-2.400000000000e-001,0.000000000000e+000
      18,1.005000000000e+001,-2.400000000000e-001,0.000000000000e+000
      19,1.000000000000e+001,-2.700000000000e-001,0.000000000000e+000
      20,1.005000000000e+001,-2.700000000000e-001,0.000000000000e+000
** ... 20281 like lines cut
*ELEMENT, TYPE=CAX4, ELSET=EKlocek
     1,      1,      2,      3,      4
     2,      2,      5,      6,      3
     3,      5,      7,      8,      6
     4,      7,      9,     10,      8
     5,      9,     11,     12,     10
     6,     11,     13,     14,     12
     7,     13,     15,     16,     14
     8,     15,     17,     18,     16
     9,     17,     19,     20,     18
    10,     19,     21,     22,     20
    11,     21,     23,     24,     22
    12,     23,     25,     26,     24
    13,     25,     27,     28,     26
    14,     27,     29,     30,     28
    15,     29,     31,     32,     30
    16,     31,     33,     34,     32
    17,     33,     35,     36,     34
    18,     35,     37,     38,     36
    19,     37,     39,     40,     38
    20,     39,     41,     42,     40
** ... 19980 like lines cut

***********************************************************************
** Names based on fix
*NSET,NSET=Nfix 
1, 
4, 
201, 
202, 
204, 
303, 
305, 
404, 
406, 
505, 
507, 
606, 
608, 
707, 
709, 
808, 
810, 
909, 
911, 
1010, 
** ... 382 like lines cut

***********************************************************************
*BOUNDARY
Nfix, 2,2, 0.,

***********************************************************************
*MATERIAL, NAME=CuBe2
*ELASTIC
127000.0, 0.3
*PLASTIC
800.0, 0.0
801.0, 0.5

*SOLID SECTION,ELSET=EKlocek,MATERIAL=CuBe2

***********************************************************************
*TIME POINTS, NAME=T1
1.,2.,3.,4.,5.,6.

*AMPLITUDE, NAME=A1
0.,0.
1.,1.
2.,0.
3.,1.
4.,0.
5.,1.
6.,0.

**========================= STEP 0 =========================

***********************************************************************
*STEP, NLGEOM
*STATIC
1.0, 1.0, 1e-05, 1.0

***********************************************************************
*NODE FILE, OUTPUT=3D
U

***********************************************************************
*EL FILE, OUTPUT=3D
S, E, PEEQ

*END STEP

**========================= STEP 1 =========================

***********************************************************************
*STEP, INC= 1000, NLGEOM
*STATIC
0.1, 6.0, 1e-05, 0.1

***********************************************************************
*DLOAD, AMPLITUDE=A1
1, P1, 450.000000
2, P1, 450.000000
3, P1, 450.000000
4, P1, 450.000000
5, P1, 450.000000
6, P1, 450.000000
7, P1, 450.000000
8, P1, 450.000000
9, P1, 450.000000
10, P1, 450.000000
11, P1, 450.000000
12, P1, 450.000000
13, P1, 450.000000
14, P1, 450.000000
15, P1, 450.000000
16, P1, 450.000000
17, P1, 450.000000
18, P1, 450.000000
19, P1, 450.000000
20, P1, 450.000000
** ... 80 like lines cut

***********************************************************************
*NODE FILE, TIME POINTS=T1, OUTPUT=3D
U

***********************************************************************
*EL FILE, TIME POINTS=T1, OUTPUT=3D
S, E, PEEQ

*END STEP