*Heading
File generated by TexGen v3.3.0
************
*** MESH ***
************
*Node
1, 0, -1.81841e-017, 0
2, 0, -1.81841e-017, 0.0494998
3, 0, -1.81841e-017, 0.0505002
4, 0, -1.81841e-017, 0.1
5, 0, 0.294383, 0
6, 0, 0.294383, 0.0246056
7, 0, 0.294383, 0.0410678
8, 0, 0.294383, 0.05753
9, 0, 0.294383, 0.0739922
10, 0, 0.294383, 0.075
11, 0, 0.294383, 0.1
12, 1.2, -1.81841e-017, 0
13, 1.2, -1.81841e-017, 0.0494998
14, 1.2, -1.81841e-017, 0.0505002
15, 1.2, -1.81841e-017, 0.1
16, 1.2, 0.294383, 0
17, 1.2, 0.294383, 0.0246056
18, 1.2, 0.294383, 0.0492989
19, 1.2, 0.294383, 0.0739922
20, 1.2, 0.294383, 0.075
** ... 38673 like lines cut
*Element, Type=C3D10
1, 4541, 292, 1019, 4542, 5391, 5392, 5393, 5394, 5395, 5396
2, 4542, 292, 1019, 1020, 5395, 5392, 5396, 5397, 5398, 5399
3, 4542, 292, 1020, 293, 5395, 5398, 5397, 5400, 5401, 5402
4, 4542, 293, 1020, 1021, 5400, 5402, 5397, 5403, 5404, 5405
5, 4542, 293, 1021, 4543, 5400, 5404, 5403, 5406, 5407, 5408
6, 4543, 293, 1021, 294, 5407, 5404, 5408, 5409, 5410, 5411
7, 4543, 294, 1021, 1022, 5409, 5411, 5408, 5412, 5413, 5414
8, 4543, 294, 1022, 4544, 5409, 5413, 5412, 5415, 5416, 5417
9, 4544, 294, 1022, 295, 5416, 5413, 5417, 5418, 5419, 5420
10, 4544, 295, 1022, 1023, 5418, 5420, 5417, 5421, 5422, 5423
11, 4544, 295, 1023, 4545, 5418, 5422, 5421, 5424, 5425, 5426
12, 4545, 295, 1023, 296, 5425, 5422, 5426, 5427, 5428, 5429
13, 4545, 296, 1023, 1024, 5427, 5429, 5426, 5430, 5431, 5432
14, 4545, 296, 1024, 4546, 5427, 5431, 5430, 5433, 5434, 5435
15, 4546, 296, 1024, 4547, 5434, 5431, 5435, 5436, 5437, 5438
16, 4547, 296, 1024, 297, 5437, 5431, 5438, 5439, 5440, 5441
17, 4547, 297, 1024, 1025, 5439, 5441, 5438, 5442, 5443, 5444
18, 1044, 4316, 602, 4317, 5445, 5446, 5447, 5448, 5449, 5450
19, 1044, 4317, 602, 603, 5448, 5450, 5447, 5451, 5452, 5453
20, 1044, 4317, 603, 1045, 5448, 5452, 5451, 5454, 5455, 5456
** ... 26009 like lines cut
********************
*** ORIENTATIONS ***
********************
** Orientation vectors
** 1st vector represents the fibre direction
** 2nd vector is an arbitrary vector perpendicular to the first
*Distribution Table, Name=TexGenOrientationVectors
COORD3D,COORD3D
*Distribution, Location=Element, Table=TexGenOrientationVectors, Name=TexGenOrientationVectors, Input=Ex3.1.ori
*Orientation, Name=TexGenOrientations, Definition=coordinates
TexGenOrientationVectors
1, 0
********************
*** ELEMENT SETS ***
********************
** TexGen generates a number of element sets:
** All - Contains all elements
** Matrix - Contains all elements belonging to the matrix
** YarnX - Where X represents the yarn index
*ElSet, ElSet=All, Generate
1, 26029, 1
*ElSet, ElSet=Matrix
1, 2, 3, 11, 12, 13, 15, 16, 17, 18, 19, 20, 22, 23, 24, 30
31, 32, 33, 34, 35, 36, 40, 41, 42, 43, 44, 45, 46, 47, 48, 49
50, 51, 52, 53, 54, 55, 59, 60, 61, 62, 63, 64, 65, 66, 67, 68
69, 70, 71, 72, 73, 75, 76, 77, 81, 82, 83, 84, 85, 86, 87, 88
89, 90, 91, 95, 96, 97, 98, 99, 100, 101, 102, 103, 104, 108, 109, 110
111, 112, 113, 114, 115, 116, 120, 121, 122, 123, 124, 125, 126, 127, 128, 129
130, 131, 132, 133, 134, 135, 136, 137, 138, 139, 140, 141, 142, 143, 144, 145
146, 147, 148, 149, 150, 151, 152, 153, 154, 155, 156, 157, 158, 159, 160, 161
162, 163, 164, 165, 166, 167, 168, 169, 170, 171, 172, 173, 174, 175, 176, 177
178, 179, 185, 186, 187, 188, 189, 190, 191, 192, 193, 194, 195, 199, 200, 201
202, 203, 204, 205, 206, 207, 208, 209, 210, 211, 213, 214, 215, 219, 220, 221
222, 223, 224, 225, 226, 227, 235, 236, 237, 238, 239, 240, 241, 242, 248, 249
250, 253, 254, 255, 256, 257, 258, 261, 262, 263, 267, 268, 269, 270, 271, 272
273, 278, 279, 280, 281, 282, 283, 284, 285, 286, 287, 291, 292, 293, 294, 295
296, 297, 301, 302, 303, 307, 308, 309, 310, 311, 312, 316, 317, 318, 321, 322
323, 324, 325, 326, 327, 328, 329, 330, 331, 335, 336, 337, 338, 339, 340, 341
342, 343, 344, 348, 349, 350, 352, 353, 354, 355, 356, 357, 358, 359, 360, 361
362, 363, 364, 365, 366, 367, 368, 369, 370, 371, 372, 373, 374, 375, 376, 377
378, 379, 380, 381, 382, 388, 389, 390, 391, 392, 393, 394, 395, 396, 400, 401
402, 403, 404, 405, 406, 407, 408, 409, 410, 414, 415, 416, 417, 418, 419, 420
** ... 1135 like lines cut
*ElSet, ElSet=Yarn0
14, 25, 26, 27, 28, 29, 78, 79, 80, 105, 106, 107, 212, 228, 229, 230
231, 232, 233, 234, 251, 252, 304, 305, 306, 319, 320, 351, 397, 398, 399, 411
412, 413, 423, 424, 425, 570, 571, 572, 573, 574, 575, 576, 577, 585, 653, 654
655, 695, 751, 752, 753, 788, 801, 802, 803, 882, 883, 884, 885, 905, 906, 907
997, 998, 999, 1000, 1001, 1014, 1015, 1068, 1069, 1070, 1100, 1109, 1110, 1111, 1140, 1141
1142, 1177, 1178, 1179, 1180, 1181, 1190, 1191, 1192, 1193, 1194, 1202, 1203, 1204, 1205, 1219
1220, 1221, 1231, 1250, 1251, 1252, 1253, 1254, 1255, 1269, 1270, 1279, 1280, 1281, 1293, 1294
1295, 1296, 1297, 1298, 1299, 1308, 1309, 1310, 1325, 1326, 1343, 1379, 1380, 1381, 1535, 1536
1537, 1565, 1660, 1716, 1717, 1741, 1742, 1743, 1771, 1788, 1789, 1790, 1809, 1817, 1818, 1819
1820, 1867, 1868, 1869, 1897, 1898, 1899, 1912, 1913, 1914, 1933, 1942, 1943, 1944, 1976, 1977
1978, 2095, 2096, 2097, 2098, 2099, 2100, 2101, 2102, 2111, 2112, 2113, 2132, 2145, 2146, 2147
2177, 2178, 2179, 2230, 2285, 2347, 2348, 2473, 2474, 2475, 2544, 2545, 2546, 2608, 2609, 2610
2651, 2652, 2686, 2687, 2688, 2689, 2690, 2691, 2692, 2705, 2706, 2707, 2708, 2709, 2710, 2711
2712, 2724, 2725, 2726, 2735, 2736, 2737, 2738, 2739, 2740, 2741, 2750, 2751, 2752, 2765, 2766
2767, 2773, 2774, 2775, 2788, 2789, 2790, 2791, 2803, 2804, 2805, 2822, 2823, 2824, 2833, 2849
2850, 2851, 2868, 2869, 2870, 2893, 2894, 2905, 2906, 2907, 2923, 2924, 2925, 2951, 2952, 2953
3234, 3235, 3305, 3306, 3307, 3360, 3401, 3440, 3482, 3483, 3484, 3499, 3500, 3501, 3523, 3537
3538, 3539, 3551, 3552, 3553, 3554, 3555, 3556, 3557, 3570, 3571, 3572, 3579, 3580, 3581, 3582
3583, 3595, 3596, 3597, 3598, 3611, 3612, 3613, 3614, 3623, 3624, 3625, 3626, 3634, 3635, 3650
3651, 3652, 3663, 3664, 3665, 3679, 3680, 3681, 3721, 3789, 3790, 3791, 3824, 3825, 3826, 3834
** ... 98 like lines cut
*ElSet, ElSet=Yarn1
196, 197, 198, 259, 260, 383, 384, 385, 386, 387, 441, 509, 510, 511, 544, 545
546, 553, 554, 555, 702, 703, 766, 767, 768, 832, 833, 834, 835, 836, 872, 873
874, 1022, 1023, 1024, 1079, 1126, 1401, 1438, 1454, 1477, 1489, 1490, 1491, 1492, 1493, 1516
1599, 1600, 1601, 1602, 1627, 1628, 1629, 1682, 1683, 1684, 1859, 1987, 2022, 2023, 2024, 2044
2045, 2046, 2055, 2056, 2057, 2074, 2075, 2076, 2077, 2078, 2079, 2080, 2081, 2082, 2186, 2187
2253, 2307, 2369, 2370, 2371, 2394, 2449, 2450, 2523, 2524, 2525, 2588, 2589, 2590, 2659, 2975
3015, 3016, 3017, 3038, 3069, 3070, 3071, 3084, 3085, 3086, 3108, 3109, 3118, 3119, 3120, 3121
3122, 3132, 3133, 3134, 3135, 3136, 3137, 3138, 3149, 3150, 3151, 3152, 3153, 3154, 3174, 3186
3187, 3188, 3189, 3190, 3247, 3315, 3316, 3317, 3380, 3381, 3382, 3447, 3710, 3711, 3712, 3779
3780, 3988, 3989, 3990, 4014, 4015, 4016, 4017, 4018, 4019, 4073, 4074, 4075, 4132, 4171, 4190
4191, 4192, 4212, 4213, 4214, 4215, 4225, 4226, 4227, 4228, 4229, 4230, 4243, 4244, 4245, 4246
4247, 4255, 4256, 4257, 4258, 4277, 4291, 4292, 4293, 4456, 4457, 4542, 4543, 4544, 4589, 4590
4696, 4697, 4698, 4760, 4761, 4762, 4851, 4931, 4932, 4933, 4994, 4995, 4996, 4997, 5340, 5341
5342, 5343, 5344, 5345, 5432, 5433, 5499, 5500, 5563, 5564, 5565, 5566, 5567, 5590, 5591, 5592
5601, 5602, 5621, 5622, 5623, 5631, 5632, 5633, 5634, 5635, 5648, 5649, 5650, 5666, 5690, 5691
5703, 5704, 5705, 5720, 5721, 5722, 5723, 5724, 5725, 5743, 5752, 5753, 5754, 5755, 5756, 5757
5773, 5774, 5775, 5776, 5777, 5778, 5779, 5797, 5798, 5799, 5822, 5834, 5854, 5855, 5856, 5887
5973, 5974, 6341, 6388, 6389, 6447, 6517, 6518, 6519, 6847, 6848, 6849, 6850, 6851, 6852, 6853
6854, 6924, 6925, 6969, 6970, 6971, 7037, 7038, 7099, 7100, 7101, 7102, 7103, 7104, 7116, 7117
7136, 7137, 7138, 7148, 7149, 7150, 7151, 7152, 7153, 7168, 7169, 7170, 7186, 7211, 7224, 7225
** ... 107 like lines cut
*ElSet, ElSet=Yarn2
4, 5, 6, 7, 8, 9, 10, 21, 37, 38, 39, 56, 57, 58, 74, 92
93, 94, 117, 118, 119, 243, 244, 245, 246, 247, 264, 265, 266, 274, 275, 276
277, 288, 289, 290, 298, 299, 300, 313, 314, 315, 332, 333, 334, 345, 346, 347
445, 446, 447, 515, 516, 517, 518, 519, 527, 528, 529, 559, 560, 561, 689, 690
691, 707, 708, 709, 723, 740, 741, 742, 743, 772, 773, 774, 782, 783, 784, 796
797, 811, 812, 813, 814, 815, 816, 817, 818, 968, 969, 970, 980, 981, 982, 983
992, 993, 1008, 1009, 1010, 1028, 1029, 1038, 1039, 1040, 1041, 1042, 1043, 1044, 1045, 1054
1055, 1056, 1083, 1084, 1085, 1086, 1093, 1094, 1095, 1096, 1159, 1160, 1161, 1173, 1263, 1264
1265, 1289, 1319, 1320, 1321, 1458, 1459, 1460, 1461, 1462, 1505, 1506, 1507, 1508, 1520, 1521
1522, 1523, 1524, 1531, 1545, 1546, 1547, 1559, 1560, 1561, 1583, 1584, 1585, 1606, 1615, 1616
1617, 1618, 1633, 1643, 1644, 1645, 1654, 1655, 1656, 1671, 1672, 1673, 1688, 1689, 1690, 1699
1700, 1701, 1702, 1710, 1711, 1712, 1725, 1726, 1727, 1728, 1737, 1752, 1753, 1754, 1755, 1756
1803, 1804, 1805, 1927, 1928, 1929, 1957, 1958, 1959, 1972, 1991, 1992, 1993, 1994, 1995, 2003
2004, 2005, 2061, 2062, 2063, 2126, 2127, 2128, 2159, 2160, 2161, 2162, 2171, 2172, 2173, 2191
2192, 2193, 2208, 2209, 2210, 2224, 2225, 2226, 2240, 2241, 2242, 2257, 2258, 2259, 2268, 2269
2270, 2271, 2279, 2280, 2281, 2293, 2294, 2295, 2311, 2312, 2313, 2328, 2329, 2330, 2341, 2342
2343, 2356, 2357, 2358, 2359, 2360, 2375, 2383, 2384, 2385, 2398, 2399, 2400, 2401, 2410, 2411
2412, 2413, 2429, 2454, 2455, 2469, 2491, 2492, 2493, 2508, 2509, 2510, 2511, 2512, 2513, 2514
2529, 2530, 2531, 2538, 2539, 2540, 2555, 2556, 2557, 2558, 2559, 2560, 2561, 2562, 2575, 2576
2577, 2594, 2595, 2596, 2603, 2604, 2618, 2619, 2620, 2631, 2632, 2633, 2634, 2635, 2643, 2644
** ... 84 like lines cut
*ElSet, ElSet=Yarn3
180, 181, 182, 183, 184, 216, 217, 218, 429, 430, 431, 462, 463, 464, 465, 466
467, 468, 469, 470, 538, 539, 540, 589, 590, 591, 592, 593, 675, 757, 758, 759
889, 890, 954, 955, 956, 1119, 1120, 1121, 1122, 1209, 1235, 1236, 1237, 1238, 1239, 1240
1361, 1362, 1363, 1364, 1365, 1366, 1385, 1394, 1395, 1396, 1397, 1414, 1415, 1416, 1470, 1471
1472, 1473, 1794, 1836, 1852, 1853, 1854, 1855, 1873, 1882, 1883, 1884, 1918, 2040, 2117, 2118
2779, 2780, 2781, 2837, 2838, 2839, 2840, 2911, 2938, 2939, 2940, 2957, 2958, 2967, 2968, 2969
2970, 2971, 2987, 2988, 2989, 2990, 2991, 3004, 3005, 3006, 3032, 3033, 3034, 3051, 3052, 3053
3100, 3101, 3102, 3103, 3104, 3168, 3169, 3170, 3505, 3587, 3639, 3640, 3641, 3642, 3669, 3691
3692, 3693, 3694, 3695, 3704, 3705, 3706, 3725, 3726, 3727, 3740, 3741, 3742, 3743, 3759, 3760
3761, 3762, 3773, 3774, 3775, 3795, 3807, 3808, 3809, 3810, 3811, 3812, 3838, 3839, 3840, 3841
3911, 3912, 3982, 3983, 3984, 4010, 4067, 4068, 4069, 4207, 4208, 4271, 4272, 4273, 4329, 4387
5128, 5129, 5130, 5131, 5185, 5186, 5187, 5270, 5320, 5321, 5322, 5323, 5324, 5325, 5336, 5359
5360, 5361, 5371, 5372, 5373, 5374, 5375, 5376, 5392, 5393, 5394, 5415, 5426, 5427, 5428, 5445
5446, 5447, 5461, 5462, 5463, 5482, 5493, 5494, 5495, 5514, 5515, 5516, 5528, 5529, 5530, 5531
5532, 5549, 5550, 5551, 5559, 5577, 5578, 5579, 5615, 5616, 5617, 5684, 5685, 5686, 5735, 5736
5737, 5738, 5739, 5816, 5817, 5818, 6069, 6070, 6071, 6143, 6144, 6199, 6200, 6201, 6267, 6268
6269, 6270, 6299, 6322, 6323, 6334, 6335, 6336, 6337, 6355, 6356, 6357, 6369, 6370, 6371, 6372
6373, 6382, 6383, 6384, 6400, 6401, 6402, 6410, 6411, 6412, 6425, 6426, 6427, 6428, 6429, 6440
6441, 6442, 6443, 6460, 6461, 6462, 6463, 6464, 6465, 6476, 6477, 6478, 6479, 6480, 6481, 6496
6497, 6498, 6513, 6536, 6537, 6549, 6550, 6551, 6585, 6586, 6587, 6645, 6706, 6707, 6708, 6794
** ... 105 like lines cut
*****************
*** MATERIALS ***
*****************
*Material, Name=TexGenGenerated
*Elastic
1.0, 0.0
*DepVar
5
*Solid Section, ElSet=Matrix, Material=TexGenGenerated, Orientation=TexGenOrientations
1.0,
*Solid Section, ElSet=Yarn0, Material=TexGenGenerated, Orientation=TexGenOrientations
1.0,
*Solid Section, ElSet=Yarn1, Material=TexGenGenerated, Orientation=TexGenOrientations
1.0,
*Solid Section, ElSet=Yarn2, Material=TexGenGenerated, Orientation=TexGenOrientations
1.0,
*Solid Section, ElSet=Yarn3, Material=TexGenGenerated, Orientation=TexGenOrientations
1.0,
** Note: Additional element data are stored as a depvars:
** 1 - Yarn Index (-1 for matrix, first yarn starting at 0)
** 2/3 - Location (x and y cross-section coordinates of element relative to yarn centerline)
** 4 - Volume fraction
** 5 - Distance of element from the surface of the yarn (for yarn elements only, distance is negative)
*Initial Conditions, Type=Solution, Input=Ex3.1.eld
************
*** STEP ***
************
*Step, Name=TexGenGenerated
*Static
*Output, Field, Variable=PRESELECT
*Element Output
SDV
*Node Print
U
*End Step
