**
*NODE
      8205,  -514.19059972  ,  1769.8056655354,  554.36653793101
      8207,  -506.6531720314,  1770.5552931217,  554.40442249352
      8211,  -499.8844143112,  1770.5563464993,  554.40608293325
      8216,  -493.1093573649,  1770.5563469425,  554.40610236398
      8222,  -486.6335148393,  1770.5563445286,  554.40599652696
      8228,  -481.3296797925,  1770.5562799721,  554.40540871156
      8232,  -474.244403834 ,  1765.3389129627,  554.52557270883
      8239,  -473.9286800798,  1770.5621381593,  554.4039032408
      8243,  -467.9533592274,  1765.3389189078,  554.5256273403
      8251,  -461.6619674664,  1765.3388573887,  554.52516805001
      8252,  -467.7228930771,  1771.6392983485,  554.38137097312
      8260,  -455.3705869215,  1765.3388561742,  554.52511479944
      8269,  -460.5853663714,  1771.8050306693,  554.37764233116
      8271,  -449.0792126133,  1765.3388560262,  554.52510831258
      8280,  -452.2046751345,  1770.7346416799,  554.40204264702
      8281,  -442.7878404492,  1765.3388560438,  554.52510908268
      8290,  -443.9728897385,  1771.7284400074,  554.37937760637
      8294,  -436.496468877 ,  1765.3388560499,  554.52510935245
      8305,  -437.0151382112,  1771.8456217342,  554.37670552706
      8307,  -430.2050974069,  1765.338856051 ,  554.52510939807
** ... 512 like lines cut
*ELEMENT,TYPE=C3D6,ELSET=padding
     25744,      8271,      8280,      8260,     12654,     12634,     12635
     25745,     12654,     12634,     12635,     12655,     12636,     12637
     25764,      9071,      9072,      9054,     14108,     14110,     14109
     25765,     14108,     14110,     14109,     14111,     14113,     14112
     25766,      9095,      9083,      9096,     14174,     14176,     14175
     25767,     14174,     14176,     14175,     14177,     14179,     14178
*ELEMENT,TYPE=C3D6,ELSET=trim
     30728,     15019,     15856,     15857,     15018,     15852,     15853
     30729,     14112,     14111,     14113,     15019,     15856,     15857
     30738,     17063,     18942,     18943,     17062,     18940,     18941
     30739,     14178,     14177,     14179,     17063,     18942,     18943
     30746,     19875,     19874,     19873,     19872,     19871,     19870
     30747,     12637,     12655,     12636,     19875,     19874,     19873
*ELEMENT,TYPE=C3D8,ELSET=padding
     28714,      8239,      8232,      8243,      8252,     12579,     12592,     12591,
     12590
     28715,     12579,     12592,     12591,     12590,     12581,     12595,     12594,
     12593
     28732,      8269,      8252,      8243,      8251,     12614,     12590,     12591,
     12615
     28733,     12614,     12590,     12591,     12615,     12616,     12593,     12594,
     12617
     28748,      8251,      8260,      8280,      8269,     12615,     12635,     12634,
     12614
     28749,     12615,     12635,     12634,     12614,     12617,     12637,     12636,
     12616
     28782,      8281,      8290,      8280,      8271,     12676,     12677,     12634,
     12654
     28783,     12676,     12677,     12634,     12654,     12678,     12679,     12636,
     12655
     28802,      8290,      8281,      8294,      8305,     12677,     12676,     12703,
     12702
     28803,     12677,     12676,     12703,     12702,     12679,     12678,     12705,
     12704
** ... 280 like lines cut
*ELEMENT,TYPE=C3D8,ELSET=trim
     30766,     19229,     16616,     16160,     16161,     19225,     16614,     16156,
     16157
     30767,     14219,     14214,     12521,     12512,     19229,     16616,     16160,
     16161
     30784,     17644,     16151,     18153,     18916,     17642,     16148,     18151,
     18912
     30785,     14196,     13217,     13165,     14199,     17644,     16151,     18153,
     18916
     30808,     16197,     15415,     16835,     16438,     16196,     15413,     16833,
     16434
     30809,     14255,     14251,     14242,     14246,     16197,     15415,     16835,
     16438
     30950,     15555,     15556,     14743,     14645,     15552,     15553,     14742,
     14644
     30951,     14272,     14273,     14351,     14350,     15555,     15556,     14743,
     14645
     30994,     19108,     19109,     17803,     17804,     19104,     19105,     17799,
     17800
     30995,     12840,     12803,     12802,     12841,     19108,     19109,     17803,
     17804
** ... 280 like lines cut
*NSET, NSET=disp
     14652,     14760,     14780,     14912,     14925,     14926,     15412,     15413,
     15732,     15836,     15850,     15853,     16196,     16338,     16339,     16440,
     16862,     16865,     17643,     18910,     18913,     18941,     19005,     19458,
     19461,
*NSET, NSET=fix
      8205,      8207,      8211,      8216,      8222,      8228,      8232,      8239,
      8243,      8251,      8252,      8260,      8269,      8271,      8280,      8281,
      8290,      8294,      8305,      8307,      8319,      8323,      8335,      8340,
      8353,      8357,      8370,      8377,      8391,      8398,      8414,      8418,
      8437,      8441,      8460,      8463,      8481,      8487,      8507,      8511,
      8512,      8532,      8533,      9049,      9054,      9055,      9057,      9059,
      9060,      9061,      9065,      9068,      9070,      9071,      9072,      9073,
      9076,      9078,      9079,      9081,      9083,      9085,      9086,      9087,
      9088,      9089,      9092,      9093,      9095,      9096,      9098,      9099,
      9100,      9101,      9102,      9104,      9105,      9107,      9109,      9111,
      9113,      9114,      9126,      9127,      9128,      9129,      9130,      9131,
      9132,      9133,      9134,      9135,      9136,      9137,      9138,      9139,
      9140,      9171,      9172,      9202,      9203,      9211,      9212,      9242,
      9243,
*AMPLITUDE, NAME =a1
0.0       ,0.0
1.0       ,1.0
*SOLID SECTION, ELSET=padding, MATERIAL=pad-mat
*SOLID SECTION, ELSET=trim, MATERIAL=trim-mat
*MATERIAL, NAME=pad-mat
*HYPERFOAM, N =  2
0.01736, 18.546, 0.00006173, -2.28, 1.0000E-05, 1.0000E-05
*MATERIAL, NAME=trim-mat
*ELASTIC
3.0,0.4
*boundary
fix,1,3,0.0
disp,1,2,0.0
*STEP,NLGEOM,INC=999
*STATIC
0.01,1.0,1.0E-08,0.1
*BOUNDARY,amplitude=a1
disp,3,3,-8.0
*NODE FILE, FREQUENCY = 1
RF, U
*NODE PRINT, FREQUENCY = 1
RF
*OUTPUT, FIELD
*NODE OUTPUT
RF, U
*ELEMENT OUTPUT
S
*END STEP
*****