**
*NODE
      7505,  -382.9372385467,  1978.7820563228,  549.91975790451
      7506,  -383.0219223576,  1971.9642379445,  549.93015128201
      7507,  -383.105236415 ,  1965.1492937559,  549.99847218769
      7508,  -360.9999548741,  1978.6981572626,  549.91928927634
      7509,  -375.6259198118,  1978.7516005187,  549.91966633935
      7510,  -368.3138602338,  1978.7216013562,  549.91958115306
      7511,  -360.9999563202,  1971.9117819855,  549.93007921986
      7512,  -360.9999578556,  1965.1253207941,  549.9985571525
      7513,  -368.3420616671,  1971.9242390683,  549.93023356515
      7514,  -375.6823744677,  1971.9439592197,  549.92979695842
      7515,  -375.737839728 ,  1965.1391284697,  549.99836068746
      7516,  -368.3696379218,  1965.1293414174,  549.99850105859
      7517,  -382.6370782036,  2005.9390319779,  550.45469931052
      7518,  -382.8520194736,  1985.5995586357,  549.96773875936
      7519,  -382.6857578501,  1999.1900116509,  550.23583120768
      7520,  -382.7686843055,  1992.4178328828,  550.07343868386
      7521,  -361.0000145146,  2005.8495053666,  550.45467564303
      7522,  -375.4252920059,  2005.9080930923,  550.4535490036
      7523,  -368.206851046 ,  2005.877723998 ,  550.45247101406
      7524,  -360.9999534127,  1985.4851210632,  549.96609142719
** ... 5340 like lines cut
*ELEMENT,TYPE=C3D6,ELSET=padding
     25738,      8238,      8253,      8247,     12569,     12596,     12584
     25739,     12569,     12596,     12584,     12571,     12597,     12586
     25740,      8242,      8261,      8250,     12578,     12608,     12598
     25741,     12578,     12608,     12598,     12580,     12609,     12599
     25742,      8262,      8268,      8257,     12630,     12628,     12610
     25743,     12630,     12628,     12610,     12631,     12629,     12611
     25744,      8271,      8280,      8260,     12654,     12634,     12635
     25745,     12654,     12634,     12635,     12655,     12636,     12637
     25746,      8286,      8276,      8268,     12658,     12652,     12628
     25747,     12658,     12652,     12628,     12659,     12653,     12629
     25748,      8293,      8279,      8282,     12680,     12648,     12664
     25749,     12680,     12648,     12664,     12681,     12649,     12665
     25750,      8373,      8347,      8360,     12848,     12778,     12816
     25751,     12848,     12778,     12816,     12849,     12779,     12817
     25752,      8425,      8459,      8439,     12954,     13004,     12986
     25753,     12954,     13004,     12986,     12955,     13005,     12987
     25754,      8566,      8583,      8543,     13236,     13244,     13190
     25755,     13236,     13244,     13190,     13237,     13245,     13191
     25756,      8572,      8587,      8552,     13256,     13262,     13208
     25757,     13256,     13262,     13208,     13257,     13263,     13209
** ... 8 like lines cut
*ELEMENT,TYPE=C3D6,ELSET=trim
     30724,     15301,     17767,     17766,     15300,     17765,     17764
     30725,     13343,     13377,     13297,     15301,     17767,     17766
     30726,     15239,     15199,     16313,     15238,     15198,     16312
     30727,     12987,     12955,     13005,     15239,     15199,     16313
     30728,     15019,     15856,     15857,     15018,     15852,     15853
     30729,     14112,     14111,     14113,     15019,     15856,     15857
     30730,     16692,     17925,     17922,     16690,     17921,     17918
     30731,     13699,     13713,     13715,     16692,     17925,     17922
     30734,     19354,     19355,     15491,     19350,     19351,     15489
     30735,     12817,     12849,     12779,     19354,     19355,     15491
     30736,     18607,     16431,     16430,     18603,     16429,     16428
     30737,     13191,     13237,     13245,     18607,     16431,     16430
     30738,     17063,     18942,     18943,     17062,     18940,     18941
     30739,     14178,     14177,     14179,     17063,     18942,     18943
     30740,     17889,     17888,     17887,     17886,     17885,     17884
     30741,     12665,     12681,     12649,     17889,     17888,     17887
     30742,     19865,     19864,     19863,     19862,     19861,     19860
     30743,     13209,     13257,     13263,     19865,     19864,     19863
     30744,     19879,     19869,     19868,     19876,     19867,     19866
     30745,     12629,     12659,     12653,     19879,     19869,     19868
** ... 8 like lines cut
*ELEMENT,TYPE=C3D8,ELSET=padding
     26266,      9790,      9777,      9783,      9802,      9788,      9775,      9779,
      9798
     26267,      7710,      7707,      7708,      7709,      9790,      9777,      9783,
      9802
     26268,      9833,      9812,      9777,      9790,      9829,      9808,      9775,
      9788
     26269,      7706,      7705,      7707,      7710,      9833,      9812,      9777,
      9790
     26270,      9777,      9776,      9784,      9783,      9775,      9774,      9780,
      9779
     26271,      7707,      8867,      8859,      7708,      9777,      9776,      9784,
      9783
     26272,      9812,      9815,      9776,      9777,      9808,      9811,      9774,
      9775
     26273,      7705,      8869,      8867,      7707,      9812,      9815,      9776,
      9777
     26274,      9782,      9803,      9802,      9783,      9778,      9799,      9798,
      9779
     26275,      7704,      7703,      7709,      7708,      9782,      9803,      9802,
      9783
** ... 3968 like lines cut
*ELEMENT,TYPE=C3D8,ELSET=trim
     30762,     19263,     17732,     17647,     14841,     19261,     17730,     17646,
     14840
     30763,     13154,     13203,     14329,     14325,     19263,     17732,     17647,
     14841
     30764,     18219,     19538,     15428,     15429,     18215,     19536,     15424,
     15425
     30765,     12663,     12684,     14299,     14297,     18219,     19538,     15428,
     15429
     30766,     19229,     16616,     16160,     16161,     19225,     16614,     16156,
     16157
     30767,     14219,     14214,     12521,     12512,     19229,     16616,     16160,
     16161
     30768,     18769,     19293,     19294,     16152,     18765,     19289,     19290,
     16149
     30769,     13207,     13149,     13113,     13164,     18769,     19293,     19294,
     16152
     30770,     18755,     17407,     17404,     15175,     18753,     17403,     17400,
     15174
     30771,     12877,     12837,     12815,     12851,     18755,     17407,     17404,
     15175
** ... 3968 like lines cut
*NSET, NSET=disp
     15202,     15547,     15672,     16292,     16769,     17086,     17470,     17476,
     18104,     18234,     18235,     18368,     18576,     18577,     18650,     18651,
     18682,     18683,     18852,     18853,     19280,     19281
*NSET, NSET=fix
      7505,      7506,      7507,      7508,      7509,      7510,      7511,      7512,
      7513,      7514,      7515,      7516,      7517,      7518,      7519,      7520,
      7521,      7522,      7523,      7524,      7525,      7526,      7527,      7528,
      7529,      7530,      7531,      7532,      7533,      7534,      7535,      7536,
      7537,      7538,      7539,      7540,      7541,      7542,      7543,      7544,
      7545,      7546,      7547,      7548,      7549,      7550,      7551,      7552,
      7553,      7554,      7555,      7556,      7557,      7558,      7559,      7560,
      7561,      7562,      7563,      7564,      7565,      7566,      7567,      7568,
      7569,      7570,      7571,      7572,      7573,      7574,      7575,      7576,
      7577,      7578,      7579,      7580,      7581,      7582,      7583,      7584,
      7585,      7586,      7587,      7588,      7589,      7590,      7591,      7592,
      7593,      7594,      7595,      7596,      7597,      7598,      7599,      7600,
      7601,      7602,      7603,      7604,      7605,      7606,      7607,      7608,
      7609,      7610,      7611,      7612,      7613,      7614,      7615,      7616,
      7617,      7618,      7619,      7620,      7621,      7622,      7623,      7624,
      7625,      7626,      7627,      7628,      7629,      7630,      7631,      7632,
      7633,      7634,      7635,      7636,      7637,      7638,      7639,      7640,
      7641,      7642,      7643,      7644,      7647,      7648,      7649,      7650,
      7654,      7655,      7656,      7657,      7658,      7659,      7662,      7663,
      7664,      7665,      7669,      7670,      7671,      7672,      7673,      7674,
** ... 114 like lines cut
*SOLID SECTION, ELSET=padding, MATERIAL=pad-mat
*SOLID SECTION, ELSET=trim, MATERIAL=trim-mat
*AMPLITUDE, NAME =a1
0.0       ,0.0
1.0       ,1.0
*MATERIAL, NAME=pad-mat
*HYPERFOAM, N =  2
0.01736, 18.546, 0.00006173, -2.28, 1.0000E-05, 1.0000E-05
*MATERIAL, NAME=trim-mat
*ELASTIC
3.0,0.4
*boundary
fix, 1, 3,0.0
disp,1,2,0.0
*STEP,NLGEOM,INC=999
*STATIC
0.01,1.0,1.0E-08,0.1
*BOUNDARY,amplitude=a1
disp,3,3,-8.0
*NODE FILE, FREQUENCY = 1
RF, U
*NODE PRINT, FREQUENCY = 1
RF
*OUTPUT, FIELD
*NODE OUTPUT
RF, U
*ELEMENT OUTPUT
S
*END STEP
*****