**
** ABAQUS Input Deck Generated by HyperMesh Version  : 13.0.110.31
** Generated using HyperMesh-Abaqus Template Version : 13.0.110
**
**   Template:  ABAQUS/EXPLICIT
**
*NODE
         1,  25.0           ,  -25.0          ,  2.842170943E-14
         2,  25.0           ,  -3.55271368E-15,  0.0            
         3,  25.0           ,  25.0           ,  0.0            
         4,  25.0           ,  25.0           ,  25.0           
         5,  25.0           ,  25.0           ,  50.0           
         6,  25.0           ,  25.0           ,  75.0           
         7,  25.0           ,  25.0           ,  100.0          
         8,  25.0           ,  25.0           ,  125.0          
         9,  25.0           ,  25.0           ,  150.0          
        10,  25.0           ,  25.0           ,  175.0          
        11,  25.0           ,  25.0           ,  200.0          
        12,  25.0           ,  -3.55271368E-15,  200.0          
        13,  25.0           ,  -25.0          ,  200.0          
        14,  25.0           ,  -25.0          ,  175.0          
        15,  25.0           ,  -25.0          ,  150.0          
        16,  25.0           ,  -25.0          ,  125.0          
        17,  25.0           ,  -25.0          ,  100.0          
        18,  25.0           ,  -25.0          ,  75.0           
        19,  25.0           ,  -25.0          ,  50.0           
        20,  25.0           ,  -25.0          ,  25.0           
** ... 61 like lines cut
**HWCOLOR COMP          1    10
*ELEMENT,TYPE=C3D8R,ELSET=balken
        17,        24,        22,        19,        18,        28,        31,        30,
        29
        18,        28,        31,        30,        29,        32,        35,        34,
        33
        19,        25,        26,        16,        15,        36,        39,        38,
        37
        20,        36,        39,        38,        37,        40,        43,        42,
        41
        21,         4,         3,         2,        23,        44,        47,        46,
        45
        22,        44,        47,        46,        45,        48,        51,        50,
        49
        23,        22,        23,        20,        19,        31,        45,        52,
        30
        24,        31,        45,        52,        30,        35,        49,        53,
        34
        25,        26,        21,        17,        16,        39,        55,        54,
        38
        26,        39,        55,        54,        38,        43,        57,        56,
        42
** ... 44 like lines cut
**HM_PROP_ID          1
**HM_comp_by_property "property1"    11
*SOLID SECTION, ELSET=balken, MATERIAL=material1
**HMNAME MATS          1 material1    11
*MATERIAL, NAME=material1
*DENSITY
7.8000E-09,0.0       
*ELASTIC, TYPE = ISOTROPIC
210000.0  ,0.3       ,0.0       
*AMPLITUDE, NAME =amp, DEFINITION = TABULAR
0.0       ,0.0       
0.2       ,1.0       
**HMNAME CURVE          1 amp
**HMNAME LOADSTEP          1 step
*STEP, INC=1000,
*DYNAMIC, EXPLICIT
        0.0  ,       0.2,          ,
**HWNAME LOADCOL          1 bc
**HWCOLOR LOADCOL          1    11
*BOUNDARY
        11,1,3,0.0
        12,1,3,0.0
        13,1,3,0.0
        70,1,3,0.0
        71,1,3,0.0
        72,1,3,0.0
        73,1,3,0.0
        80,1,3,0.0
        81,1,3,0.0
**HWNAME LOADCOL          2 cload
**HWCOLOR LOADCOL          2    11
*CLOAD, AMPLITUDE = amp
         1,2,10.0           
         2,2,10.0           
         3,2,10.0           
        46,2,10.0           
        47,2,10.0           
        50,2,10.0           
        51,2,10.0           
        76,2,10.0           
        77,2,10.0           

*NODE FILE
U,
*EL FILE
S,
E,
*END STEP
