**
**   RGW Changes
**   1.  Changed to implicit time integration (EXPLICIT seems broken)
**   2.  Modified AMPLITUDE to reach plateau load by 1.0e-3 and hold
**   3.  Set initial and max time step to 1.0e-5.  Runs but only to 1ms.
**   4.  Cut initial and max dt to 1.0e-6.  Only ran to 1ms, "max # increments"
**   5.  Added INC=500 to STEP .  Stopped at only 160 microsec.
**   6.  Commented out "*FILE OUTPUT" due to error messages; added
**        FREQUENCY=1 to *EL FILE keyword to output data every increment
**         (for now; every 10th increment is probably enough).
**   7.  Increased material density from E-9 to E-7; ran to 1.2ms.
**   8.  Increased INC from 500 to 3000, this must be at least t_final/dt
**   9.  Adjusted AMPLITUDE curve to continue displ to 2ms; adjusted
**       output to FREQ=10.  Runs to 1.45ms before losing convergence.
**  10.  Added *CONTROLS keyword and set convergence tolerances to
**        large values so any solution is accepted; residual error will
**        go to right-hand-side for next step like an explicit method
**        (using this since EXPLICIT seems to be broken, at least for 
**         shells).  Ran to 1.8ms then crashed (NaN's).  Output shows
**         apparent hourglassing at next to last step.
**  11.  Tried changing from S4R to S4 element. Now runs to completion.
**  12.  Tried changing density back to E-9 (physical), FREQ up to 10.
**       Runs to 3ms.  Vibration of base evident.
**  13.  Slowed load ramp to 2ms; ran to 10ms to get near quasistatic solution.
**  14.  To see if changing from S4R to S4 was a major factor, retried
**       model as implicit dynamic calculation with default convergence
**       tolerances.  Removed *CONTROLS; changed AMPLITUDE to ramp to
**       factor of 2.0 in 1.0 sec.  Set initial dt=1.0e-3, dt_max=5.0e-3,
**       t_final=1.0.  Runs to t=1 s with no problems.
**       
**
** ABAQUS Input Deck Generated by HyperMesh Version  : 13.0.110.31
** Generated using HyperMesh-Abaqus Template Version : 13.0.110
**
**   Template:  ABAQUS/EXPLICIT
**
*NODE
         1,  60.673852157985,  -28.88372427709,  1.938893490E-11
         2,  60.659519509285,  -27.14067743208,  -9.876958291212
         3,  60.647279174134,  -22.11773062707,  -18.556408088  
         4,  60.629905499522,  -14.44325941793,  -25.0118478995 
         5,  60.61777298789 ,  -5.01442492672 ,  -28.43242028494
         6,  60.617794747152,  5.0143505580172,  -28.43233839411
         7,  60.629927305281,  14.443189948893,  -25.01178418408
         8,  60.647297806949,  22.117668722941,  -18.55635109637
         9,  60.659536167182,  27.140618557657,  -9.876904215543
        10,  60.673866156428,  28.883663921728,  5.348989792E-05
        11,  60.659529452053,  27.140611288625,  9.8770091501629
        12,  60.647285104198,  22.117657912857,  18.556452843485
        13,  60.629906977241,  14.443180952165,  25.011885223903
        14,  60.617769250595,  5.0143444155554,  28.432450180116
        15,  60.617772909825,  -5.014428921442,  28.432419902788
        16,  60.629906210737,  -14.44326117088,  25.011846346545
        17,  60.647279152965,  -22.11773124251,  18.556405370992
        18,  60.659519746235,  -27.14067725734,  9.8769561965783
        19,  29.084172742932,  13.749998845561,  3.657850915E-05
        20,  29.012672718076,  9.7193063342614,  -9.718293535349
** ... 501 like lines cut
**HWCOLOR COMP          2    49
*ELEMENT,TYPE=S4,ELSET=Middle Surface
         1,        22,        23,        32,        27
         2,        28,        31,        29,        27
         3,        21,        22,        27,        38
         4,        27,        32,        34,        28
         5,        28,        30,        33,        31
         6,        28,        34,        37,        30
         7,        38,        27,        29,        35
         8,        30,         3,         4,        33
         9,        31,        39,        35,        29
        10,         3,        30,        36,         2
        11,         5,        31,        33,         4
        12,        37,        40,        36,        30
        13,        23,        24,        43,        32
        14,        37,        34,        41,        42
        15,        40,         1,         2,        36
        16,        32,        43,        41,        34
        17,        39,        31,         5,         6
        18,        39,        45,        38,        35
        19,        20,        21,        38,        46
        20,        37,        42,        44,        40
** ... 496 like lines cut
**HM_PROP_ID          1
**HM_comp_by_property "prop"    11
*SHELL SECTION, ELSET=Middle Surface, MATERIAL=pet
1.0       ,
*NSET, NSET=hset
       498,       499,       500,       501,       502,       503,       504,       505
*NSET, NSET=bset
       438,       439,       440,       441,       442,       443,       444,       445,
       446,       447,       448,       451,       452,       453,       454,       455,
       456,       457,       458,       459
**HMNAME MATS          1 pet    11
*MATERIAL, NAME=pet
*DENSITY
** 1.3800E-09,0.0       
  1.3800E-09,0.0
*ELASTIC, TYPE = ISOTROPIC
4500.0    ,0.0       ,0.0       
*AMPLITUDE, NAME =amp, DEFINITION = TABULAR
0.0       ,0.0          
1.0e0     ,2.0
**HMNAME CURVE          1 amp
**HMNAME LOADSTEP          1 ls
*STEP, NLGEOM = YES, INC=40000
*DYNAMIC
  1.0e-3       ,       1.0e-0,          ,5.0e-3
**HWNAME LOADCOL          1 bcb
**HWCOLOR LOADCOL          1    11
*BOUNDARY
bset,1,3,0.0
**HWNAME LOADCOL          2 bch
**HWCOLOR LOADCOL          2    11
*BOUNDARY, AMPLITUDE = amp
hset,1, ,5.0            
hset,2, ,0.0            
hset,3, ,0.0            
** *FILE OUTPUT, NUMBER INTERVAL = 2
*NODE FILE
U,
*EL FILE, FREQUENCY=1
S,
E,
*END STEP
