*NODE, NSET=Nall
       1,3.504993000000e+000,2.023608000000e+000,0.000000000000e+000
       2,3.349999911078e+000,-5.133893443698e-008,0.000000000000e+000
       3,3.387749933309e+000,-3.850420082774e-008,0.000000000000e+000
       4,3.387233963257e+000,5.912435024565e-002,0.000000000000e+000
       5,3.349489690762e+000,5.846550868189e-002,0.000000000000e+000
       6,3.368874922194e+000,-4.492156763236e-008,0.000000000000e+000
       7,3.387620938508e+000,2.956328154990e-002,0.000000000000e+000
       8,3.368361827009e+000,5.879492946377e-002,0.000000000000e+000
       9,3.349872353795e+000,2.923384180659e-002,0.000000000000e+000
      10,3.385686208927e+000,1.182307291457e-001,0.000000000000e+000
      11,3.347959183438e+000,1.169132595424e-001,0.000000000000e+000
      12,3.386589037025e+000,8.868091639322e-002,0.000000000000e+000
      13,3.366822696183e+000,1.175719943440e-001,0.000000000000e+000
      14,3.348851951121e+000,8.769272318234e-002,0.000000000000e+000
      15,3.383107141780e+000,1.773010938203e-001,0.000000000000e+000
      16,3.345408855315e+000,1.753253974915e-001,0.000000000000e+000
      17,3.384525547716e+000,1.477715381703e-001,0.000000000000e+000
      18,3.364257998548e+000,1.763132456559e-001,0.000000000000e+000
      19,3.346811455702e+000,1.461248925051e-001,0.000000000000e+000
      20,3.379497547425e+000,2.363174508641e-001,0.000000000000e+000
** ... 9341 like lines cut
*ELEMENT, TYPE=CPS8, ELSET=Eall
     1,      2,      3,      4,      5,      6,      7,      8,      9
     2,      5,      4,     10,     11,      8,     12,     13,     14
     3,     11,     10,     15,     16,     13,     17,     18,     19
     4,     16,     15,     20,     21,     18,     22,     23,     24
     5,     21,     20,     25,     26,     23,     27,     28,     29
     6,     26,     25,     30,     31,     28,     32,     33,     34
     7,     31,     30,     35,     36,     33,     37,     38,     39
     8,     36,     35,     40,     41,     38,     42,     43,     44
     9,     41,     40,     45,     46,     43,     47,     48,     49
    10,     46,     45,     50,     51,     48,     52,     53,     54
    11,     51,     50,     55,     56,     53,     57,     58,     59
    12,     56,     55,     60,     61,     58,     62,     63,     64
    13,     61,     60,     65,     66,     63,     67,     68,     69
    14,     66,     65,     70,     71,     68,     72,     73,     74
    15,     71,     70,     75,     76,     73,     77,     78,     79
    16,     76,     75,     80,     81,     78,     82,     83,     84
    17,     81,     80,     85,     86,     83,     87,     88,     89
    18,     86,     85,     90,     91,     88,     92,     93,     94
    19,     91,     90,     95,     96,     93,     97,     98,     99
    20,     96,     95,    100,    101,     98,    102,    103,    104
** ... 2860 like lines cut



*NSET,NSET=NOUTCORENODES 
    5709,
    5712,
    5710,
    5715,
    5714,
    5718,
    5717,
    5721,
    5720,
    5724,
    5723,
    5727,
    5726,
    5730,
    5729,
    5733,
    5732,
    5736,
    5735,
    5739,
** ... 700 like lines cut

** IF REMOVE THE TRANSFORM CARD IT RUNS.....
*Transform,type=C,NSET=Nall
0.,0.,0.,0.,0.,1.

*BOUNDARY 
Nall,3

*MATERIAL,NAME=EL_ALL 
*ELASTIC 
 20000000000, 0.3
*DENSITY 
 7950
*SOLID SECTION,ELSET=Eall,MATERIAL=EL_ALL
 1.0
*STEP 
*FREQUENCY 

 4,1., 10.
*NODE PRINT,NSET=Nall, GLOBAL=NO
U
*NODE FILE,NSET=Nall, GLOBAL=YES, OUTPUT=2D
U
*END STEP
