*node, nset=ntub
1, 0.0, 0.0, 0.0
2, 0.502393162395, 0.0, 0.0
3, 1.00478632479, 0.0, 0.0
4, 1.50717948718, 0.0, 0.0
5, 2.00957264958, 0.0, 0.0
6, 2.51196581198, 0.0, 0.0
7, 3.01435897437, 0.0, 0.0
8, 3.51675213676, 0.0, 0.0
9, 4.01914529916, 0.0, 0.0
10, 4.52153846156, 0.0, 0.0
11, 5.02393162395, 0.0, 0.0
12, 5.52632478634, 0.0, 0.0
13, 6.02871794874, 0.0, 0.0
14, 6.53111111114, 0.0, 0.0
15, 7.03350427353, 0.0, 0.0
16, 7.53589743592, 0.0, 0.0
17, 8.03829059832, 0.0, 0.0
18, 8.54068376071, 0.0, 0.0
19, 9.04307692311, 0.0, 0.0
20, 9.54547008551, 0.0, 0.0
** ... 214 like lines cut
*node, nset=ngun
235, 117.56, 0.0, 0.0
236, 118.06390625, 0.0, 0.0
237, 118.5678125, 0.0, 0.0
238, 119.07171875, 0.0, 0.0
239, 119.575625, 0.0, 0.0
240, 120.07953125, 0.0, 0.0
241, 120.5834375, 0.0, 0.0
242, 121.08734375, 0.0, 0.0
243, 121.59125, 0.0, 0.0
244, 122.09515625, 0.0, 0.0
245, 122.5990625, 0.0, 0.0
246, 123.10296875, 0.0, 0.0
247, 123.606875, 0.0, 0.0
248, 124.11078125, 0.0, 0.0
249, 124.6146875, 0.0, 0.0
250, 125.11859375, 0.0, 0.0
251, 125.6225, 0.0, 0.0
252, 126.12640625, 0.0, 0.0
253, 126.6303125, 0.0, 0.0
254, 127.13421875, 0.0, 0.0
** ... 45 like lines cut
*element, type=b32, elset=etub
1, 1, 2, 3
2, 3, 4, 5
3, 5, 6, 7
4, 7, 8, 9
5, 9, 10, 11
6, 11, 12, 13
7, 13, 14, 15
8, 15, 16, 17
9, 17, 18, 19
10, 19, 20, 21
11, 21, 22, 23
12, 23, 24, 25
13, 25, 26, 27
14, 27, 28, 29
15, 29, 30, 31
16, 31, 32, 33
17, 33, 34, 35
18, 35, 36, 37
19, 37, 38, 39
20, 39, 40, 41
** ... 97 like lines cut
*element, type=b32, elset=egun
118, 235, 236, 237
119, 237, 238, 239
120, 239, 240, 241
121, 241, 242, 243
122, 243, 244, 245
123, 245, 246, 247
124, 247, 248, 249
125, 249, 250, 251
126, 251, 252, 253
127, 253, 254, 255
128, 255, 256, 257
129, 257, 258, 259
130, 259, 260, 261
131, 261, 262, 263
132, 263, 264, 265
133, 265, 266, 267
134, 267, 268, 269
135, 269, 270, 271
136, 271, 272, 273
137, 273, 274, 275
** ... 12 like lines cut
*beam section, section=rect, elset=etub, material=steel
0.0484486325916, 0.0484486325916
 0.0, 1.0, 0.0
*beam section, section=rect, elset=egun, material=steel
0.0919738006173, 0.0919738006173
 0.0, 1.0, 0.0
*material, name=steel
*elastic, type=iso
210.e9, 0.3
*DENSITY
 7850.
*boundary
 ntub, 2,6
*boundary
 ngun, 2,6
*boundary
 1, 1,6 
*step
*FREQUENCY,SOLVER=ARPACK,STORAGE=YES 
 2
*NODE FILE 
 U
*end step 
