**
** ABAQUS Input Deck Generated by HyperMesh Version  : 13.0.110.31
** Generated using HyperMesh-Abaqus Template Version : 13.0.110
**
**   Template:  ABAQUS/STANDARD 3D
**
*NODE
         1,  59.67919797775 ,  -28.5409653909 ,  -1.18878800E-06
         2,  54.910046455316,  -26.16458108347,  -7.11608488E-07
         3,  50.140894578961,  -23.78819748692,  -3.78676161E-07
         4,  45.371742348704,  -21.4118146018 ,  2.063056916E-07
         5,  40.602589764549,  -19.03543242747,  5.204564771E-07
         6,  35.833436826539,  -16.65905096488,  1.242860369E-06
         7,  31.064405342108,  -14.28243271872,  -1.32629667E-08
         8,  59.675200782748,  -28.10428280946,  -4.953471050421
         9,  59.670090886258,  -26.81633743535,  -9.757025521952
        10,  59.662623670676,  -24.71885845388,  -14.26512201513
        11,  59.661303713896,  -21.86029956647,  -18.3340154594 
        12,  59.659456497701,  -18.338401702  ,  -21.84639900769
        13,  59.652674856347,  -14.26745229136,  -24.70066806005
        14,  59.646984961738,  -9.760720320351,  -26.8030947854 
        15,  59.639238453797,  -4.957349843351,  -28.08431381438
        16,  59.628767846215,  -0.002269508364,  -28.51460766006
        17,  59.632613080406,  4.9515373663805,  -28.08206698492
        18,  59.63485537932 ,  9.7562067957515,  -26.79847194286
        19,  59.640970437673,  14.265164942024,  -24.69552655167
        20,  59.65161144939 ,  18.334168893479,  -21.84526058667
** ... 2071 like lines cut
**HWCOLOR COMP          2    49
*ELEMENT,TYPE=S3,ELSET=Middle Surface
      4163,      2014,      2015,      2019
      4162,      2013,      2014,      2021
      4161,      2010,      2013,      2022
      4160,      2023,      2020,        51
      4159,      2021,      2019,      2020
      4158,        49,        48,      2008
      4157,        50,        49,      2024
      4156,      2024,      2008,      2009
      4155,      2023,      2024,      2022
      4154,      2016,      2017,      2025
      4153,      2015,      2016,      2027
      4152,      2028,      2026,        53
      4151,      2027,      2025,      2026
      4150,      2020,      2028,        52
      4149,      2019,      2027,      2028
      4148,      2018,      2005,      2006
      4147,      2017,      2018,      2029
      4146,      2030,      2026,      2025
      4145,        54,        53,      2026
      4144,      2031,      2029,      2006
** ... 4143 like lines cut
**HM_PROP_ID          1
**HM_comp_by_property "shellprop"    11
*SHELL SECTION, ELSET=Middle Surface, MATERIAL=stol95_r540
0.6       ,
*NSET, NSET=halsset
      2002,      2001,      2000,      1999,      1998,      1997,      1996,      1995,
      1994,      1993,      1992,      1991,      1990,      1989,      1988,      1987,
      1986,
*NSET, NSET=bodenset
      1784,      1783,      1782,      1781,      1780,      1779,      1778,      1777,
      1776,      1775,      1774,      1773,      1772,      1771,      1770,      1769,
      1768,      1767,      1766,      1765,      1764,      1763,      1762,      1761,
      1760,      1759,      1758,      1757,      1756,      1755,      1754,      1753,
      1752,      1751,      1750,      1749,      1748,      1747,      1746,      1745,
      1182,      1181,      1180,      1179,      1178,      1177,      1176,      1175,
      1174,      1173,      1172,      1171,      1170,      1169,      1168,      1167,
      1166,      1165,      1164,      1163,      1162,       599,       598,       597,
       596,       595,       594,       593,       592,       591,       590,       589,
       536,       535,       534,       533,       532,       531,       530,       529,
       528,       527,       526,       525
**HMNAME MATS          1 stol95_r540    11
*MATERIAL, NAME=stol95_r540
*DENSITY
8.9000E-09,0.0       
*ELASTIC, TYPE = ISOTROPIC
125000.0  ,0.33      ,0.0       
*AMPLITUDE, NAME =amp, DEFINITION = TABULAR
0.0       ,0.0       
1.0       ,1.0       
**HMNAME CURVE          1 amp
**HMNAME LOADSTEP          1 ls
*STEP, INC =          500
*STATIC
**HWNAME LOADCOL          1 bc
**HWCOLOR LOADCOL          1    11
*BOUNDARY
bodenset,1,6,0.0
**HWNAME LOADCOL          2 dyn
**HWCOLOR LOADCOL          2    11
*BOUNDARY
halsset,1, ,1.0           
halsset,2, ,0.0            
halsset,3, ,0.0            
*NODE FILE
U,
RF,
*EL FILE
S,
E,
*END STEP
*****
