**
** ABAQUS Input Deck Generated by HyperMesh Version  : 13.0.110.31
** Generated using HyperMesh-Abaqus Template Version : 13.0.110
**
**   Template:  ABAQUS/STANDARD 3D
**
*NODE
         1,  59.628765396626,  6.513953941E-09,  -28.5146065489 
         2,  59.63073506667 ,  2.4861924738592,  -28.40626608093
         3,  59.632614524678,  4.9537690766623,  -28.0816742448 
         4,  59.633918686811,  7.3842050487264,  -27.54420976358
         5,  59.634856285082,  9.758336137856 ,  -26.79769875173
         6,  59.636514469805,  12.059302305517,  -25.84548737136
         7,  59.640975907637,  14.267125605505,  -24.69439269927
         8,  59.648152643403,  16.362078855794,  -23.35874549462
         9,  59.651613357421,  18.335905817523,  -21.84380411804
        10,  59.652680157738,  20.173342604764,  -20.16275874543
        11,  59.653530079791,  21.858971251142,  -18.33019150285
        12,  59.656887129554,  23.378608979419,  -16.36073901568
        13,  59.659084250323,  24.718339575366,  -14.26343484347
        14,  59.662260748704,  25.865624195215,  -12.05466632382
        15,  59.666343556754,  26.816051193752,  -9.753951218144
        16,  59.672444045602,  27.564693517611,  -7.382441577919
        17,  59.675925845124,  28.105541400731,  -4.952041257825
        18,  59.677312631415,  28.432234240933,  -2.484597742202
        19,  59.679325083576,  28.540706971103,  0.0016224884515
        20,  59.676197496465,  28.431300910177,  2.4875288387685
** ... 8259 like lines cut
**HWCOLOR COMP          2    49
*ELEMENT,TYPE=S3,ELSET=Middle Surface
         1,       168,       170,       167
         2,       167,       172,       101
         3,       172,       170,       171
         4,       100,       720,        99
         5,       100,       172,       171
         6,       171,       175,       108
         7,       173,       175,       171
         8,       174,       176,       173
         9,       176,       109,       175
        10,       166,       177,       165
        11,       177,       176,       174
        12,       166,       111,       177
        13,       177,       110,       176
        14,       169,       178,       168
        15,       178,       173,       170
        16,       164,       179,       163
        17,       179,       178,       169
        18,       164,       165,       179
        19,       179,       174,       178
        20,       148,       182,       103
** ... 16501 like lines cut
**HM_PROP_ID          1
**HM_comp_by_property "property1"    11
*SHELL SECTION, ELSET=Middle Surface, MATERIAL=stol194
0.6       ,
*NSET, NSET=halsset
      6805,      6806,      6807,      6808,      6809,      6810,      6811,      6812,
      6813,      6814,      6815,      6816,      6817,      6818,      6819,      6820,
      6821,      6822,      6823,      6824,      6825,      6826,      6827,      6828,
      6829,      6830,      6831,      6832,      6833,      6834,      6835,      6836,
      6837,      6838,      6839
*NSET, NSET=bodenset
       723,       724,       725,       726,       727,       728,       729,       730,
       731,       732,       733,       734,       735,       736,       737,       738,
       739,       740,       741,       742,       743,       744,       745,       746,
       747,       748,       749,       750,       751,       752,       753,       754,
       755,       756,       757,       758,       759,       760,       761,       762,
       763,       764,       765,       766,       767,       768,       769,       770,
       771,       772,       773,       774,       775,       776,       777,       778,
       779,       780,       781,       782,       783,       784,       785,       786,
       787,       788,       789,       790,       791,       792,       793,       794,
       795,       796,       797,       798,       799,       800,       801,       802,
       803,       804,       805,       806,       807,       808,       809,       810,
       811,       812,      5825,      5826,      5827,      5828,      5829,      5830,
      5831,      5832,      5833,      5834,      5835,      5836,      5837,      5838,
      5839,      5840,      5841,      5842,      5843,      5844,      5845,      5846,
      5847,      5848,      5849,      5850,      5851,      5852,      5853,      5854,
      5855,      5856,      5857,      5858,      5859,      5860,      5861,      5862,
      5863,      5864,      5865,      5866,      5867,      5868,      5869,      5870,
      5871,      5872,      5873,      5874,      5875,      5876,      5877,      5878,
      5879,      5880,      5881,      5882,      5883,      5884,      5885,      5886,
      5887,      5888,      5889,      5890,      5891,      5892,      5893,      5894,
** ... 23 like lines cut
**HMNAME MATS          1 stol194    11
*MATERIAL, NAME=stol194
*DENSITY
8.9000E-09,0.0       
*ELASTIC, TYPE = ISOTROPIC
125000.0  ,0.33      ,0.0       
*PLASTIC
409.065   ,0.0       ,0.0       
418.32    ,1.0395E-03,0.0       
423.96    ,0.00213771,0.0       
427.8     ,0.00323476,0.0       
432.48    ,0.00476861,0.0       
436.9     ,0.00645908,0.0       
440.368   ,0.0083649 ,0.0       
443.4     ,0.0105244 ,0.0       
446.6     ,0.01321231,0.0       
449.16    ,0.0155977 ,0.0       
450.76    ,0.01736828,0.0       
452.52    ,0.01925344,0.0       
454.15    ,0.0212917 ,0.0       
455.73    ,0.0234235 ,0.0       
4573289.0 ,0.02560925,0.0       
458.83    ,0.02788748,0.0       
460.357   ,0.03025757,0.0       
461.68    ,0.03266076,0.0       
463.08    ,0.03513544,0.0       
464.41    ,0.03766179,0.0       
** ... 18 like lines cut
**HMNAME LOADSTEP          1 ls
*STEP
*STATIC
**HWNAME LOADCOL          1 bchals
**HWCOLOR LOADCOL          1    11
*BOUNDARY
halsset,1, ,1.0            
halsset,2, ,0.0            
halsset,3, ,0.0            
**HWNAME LOADCOL          2 bcboden
**HWCOLOR LOADCOL          2    11
*BOUNDARY
bodenset,1,6,0.0
*NODE FILE
U,
RF,
*EL FILE
S,
E,
*END STEP
*****
