*HEADING
Model: gg Date: 21/06/2010  23:57:23
**
** COORDINATES
**
*NODE, NSET=NALL
       1,   0.0000000    ,   45.000000    ,   0.0000000
       2,   50.000000    ,   45.000000    ,   0.0000000
       3,   50.000000    ,   40.000000    ,   0.0000000
       4,   0.0000000    ,   40.000000    ,   0.0000000
       5,   1.7857143    ,   45.000000    ,   0.0000000
       6,   3.5714286    ,   45.000000    ,   0.0000000
       7,   5.3571429    ,   45.000000    ,   0.0000000
       8,   7.1428571    ,   45.000000    ,   0.0000000
       9,   8.9285714    ,   45.000000    ,   0.0000000
      10,   10.714286    ,   45.000000    ,   0.0000000
      11,   12.500000    ,   45.000000    ,   0.0000000
      12,   14.285714    ,   45.000000    ,   0.0000000
      13,   16.071429    ,   45.000000    ,   0.0000000
      14,   17.857143    ,   45.000000    ,   0.0000000
      15,   19.642857    ,   45.000000    ,   0.0000000
      16,   21.428571    ,   45.000000    ,   0.0000000
      17,   23.214286    ,   45.000000    ,   0.0000000
      18,   25.000000    ,   45.000000    ,   0.0000000
      19,   26.785714    ,   45.000000    ,   0.0000000
      20,   28.571429    ,   45.000000    ,   0.0000000
** ... 99 like lines cut
**
** TRANSFORMATIONS
**
*NSET, NSET=T1
       4
*TRANSFORM, NSET=T1    , TYPE=R
 -10.000    ,  10.000    ,  0.0000    , -10.000    ,  10.000    ,  10.000
**
** ELEMENT TOPOLOGY
**
*Solid Section, elset=E1   , material=M1
   1.000
*ELEMENT, TYPE=CPS8  ,ELSET=E1
       1,       1,      63,      65,       6,      64,      78,      79,       5
       2,      63,       4,      60,      65,      62,      61,      80,      78
       3,      65,      60,      58,      66,      80,      59,      81,      82
       4,      66,      58,      56,      67,      81,      57,      83,      84
       5,      67,      56,      54,      68,      83,      55,      85,      86
       6,      68,      54,      52,      69,      85,      53,      87,      88
       7,      69,      52,      50,      70,      87,      51,      89,      90
       8,      70,      50,      48,      71,      89,      49,      91,      92
       9,      71,      48,      46,      72,      91,      47,      93,      94
      10,      72,      46,      44,      73,      93,      45,      95,      96
      11,      73,      44,      42,      74,      95,      43,      97,      98
      12,      74,      42,      40,      75,      97,      41,      99,     100
      13,      75,      40,      38,      76,      99,      39,     101,     102
      14,      76,      38,      36,      77,     101,      37,     103,     104
      15,      77,      36,       3,      33,     103,      35,      34,     105
      16,      30,      77,      33,       2,     106,     105,      32,      31
      17,      28,      76,      77,      30,     107,     104,     106,      29
      18,      26,      75,      76,      28,     108,     102,     107,      27
      19,      24,      74,      75,      26,     109,     100,     108,      25
      20,      22,      73,      74,      24,     110,      98,     109,      23
** ... 8 like lines cut
**
** MATERIAL PROPERTIES
**
**
** M1
*MATERIAL, NAME=M1
*ELASTIC, TYPE=ISOTROPIC
    200000.    ,  0.30000
*DENSITY
   0.785000E-08,
*EXPANSION, TYPE=ISO
   0.120000E-04,
**
** EARTH SPRINGS
**
**
** FIXED FREEDOMS
**
*BOUNDARY
       1, 3
       2, 3
       3, 1, 3
       4, 2, 3
       5, 3
       6, 3
       7, 3
       8, 3
       9, 3
      10, 3
      11, 3
      12, 3
      13, 3
      14, 3
      15, 3
      16, 3
      17, 3
      18, 3
      19, 3
      20, 3
** ... 97 like lines cut
*ELSET, ELSET=ESET_S1
        1,        2,        3,        4,        5,        6,        7,        8,
        9,       10,       11,       12,       13,       14,       15,       16,
       17,       18,       19,       20,       21,       22,       23,       24,
       25,       26,       27,       28
*INITIAL CONDITIONS,TYPE=TEMPERATURE
Nall, 0.0
**
** LOADING
**
*Step
Case    1  fgf time increment:    1.0000
*Static, SOLVER=SPOOLES
1.0, 1.0, 1e-05, 1.0
**
** LOADS
**
**
**
**  Load  Case
**     1   1 Line  L1   , traction      0.0 , Pressure  5.
**
*Cload,OP=NEW
      1,2,  -2.9761907
      2,2,  -2.9761893
      5,2,  -11.904762
      6,2,  -5.9523814
      7,2,  -11.904761
      8,2,  -5.9523808
      9,2,  -11.904763
     10,2,  -5.9523816
     11,2,  -11.904760
     12,2,  -5.9523828
     13,2,  -11.904763
     14,2,  -5.9523795
     15,2,  -11.904760
     16,2,  -5.9523828
     17,2,  -11.904763
     18,2,  -5.9523787
     19,2,  -11.904763
     20,2,  -5.9523828
     21,2,  -11.904760
     22,2,  -5.9523795
** ... 9 like lines cut
** OUTPUT REQUESTS
**
*EL PRINT, ELSET=E1
S
*NODE FILE
U, RF
*EL FILE
S
*End Step
