*HEADING
Just testing
** Length, m, mass, kg, time, s, temperature, K
** E, Young's Modulus, N/m^2 = kg/ms^2
** rho, Density, kg/m^3
** F, Force, N = kgm/s^2

*NODE, NSET=Nall
1, 0, 0.5, 0
2, 0, 0.375, 0
3, 0.5, 0.5, 0.125
4, 0.5, 0.375, 0
5, 0.5, 0.5, 1.125
6, 0.375, 0.5, 1
7, 0, 0, 1.125
8, 0.25, 0.25, 1.5
9, 0.25, 0, 1.125
10, 0, 0, 1.375
11, 0, 0, 1.25
12, 0, 0.25, 1.375
13, 0, 0.375, 1.25
14, 0.25, 0.125, 0.5
15, 0.5, 0.375, 1
16, 0.25, 0.5, 0
17, 0.375, 0, 0
18, 0.375, 0, 0.25
19, 0.5, 0.5, 0.375
20, 0.375, 0.5, 0.25
** ... 1011 like lines cut



*ELEMENT, TYPE=C3D10, ELSET=Eall
1, 155, 64, 181, 9, 199, 200, 202, 198, 201, 197
2, 92, 93, 23, 37, 205, 206, 208, 204, 207, 203
3, 12, 80, 77, 8, 211, 212, 214, 210, 213, 209
4, 169, 51, 171, 68, 217, 218, 220, 216, 219, 215
5, 20, 112, 131, 28, 223, 224, 226, 222, 225, 221
6, 36, 14, 56, 135, 229, 230, 232, 228, 231, 227
7, 5, 54, 190, 110, 235, 236, 238, 234, 237, 233
8, 88, 26, 86, 19, 241, 242, 244, 240, 243, 239
9, 57, 21, 60, 14, 247, 248, 250, 246, 249, 245
10, 108, 168, 9, 178, 253, 254, 256, 252, 255, 251
11, 85, 71, 84, 49, 259, 260, 262, 258, 261, 257
12, 98, 97, 17, 136, 265, 266, 268, 264, 267, 263
13, 24, 34, 57, 150, 271, 272, 274, 270, 273, 269
14, 35, 98, 18, 97, 277, 278, 279, 276, 265, 275
15, 14, 30, 56, 127, 282, 283, 230, 281, 284, 280
16, 70, 62, 13, 106, 287, 288, 290, 286, 289, 285
17, 111, 93, 116, 139, 293, 294, 296, 292, 295, 291
18, 51, 82, 53, 76, 299, 300, 302, 298, 301, 297
19, 6, 5, 189, 83, 305, 306, 308, 304, 307, 303
20, 121, 43, 25, 37, 311, 312, 314, 310, 313, 309
** ... 429 like lines cut


** These elements are the nodes on the top face of the bottom cube and their
** corresponding node on the bottom face of the top cube.
*ELEMENT, TYPE=GAPUNI, ELSET=G1
550, 86, 6
551, 14, 167
552, 32, 15
553, 29, 101
554, 34, 163
555, 36, 75
556, 129, 55
557, 56, 168
558, 57, 73
559, 58, 166
560, 59, 71
561, 60, 70
562, 185, 69
563, 134, 72
564, 149, 74
565, 88, 83
566, 152, 84
567, 87, 89
568, 107, 109
569, 150, 164
** ... 61 like lines cut

** This is all nodes where Z=0 (i.e., sitting on the ground).
*NSET, NSET=FIX
1, 2, 4, 16, 17
1, 2, 4, 16, 17, 39, 40, 41,
42, 43, 91, 94, 99, 100, 111, 118, 130, 137, 138,
139, 140, 141, 191, 192, 194, 292, 333, 334, 338, 370, 371, 373, 379, 406, 407,
409, 418, 419, 447, 448, 467, 476, 477, 481, 491, 636, 637, 733, 736, 737, 769,
772, 773, 787, 788, 790, 793, 795, 808, 823, 825, 838, 858, 859, 863, 865, 880,
881, 882, 887, 888, 894, 895, 899, 901, 905, 906, 1026, 1029, 1030, 1031


*BOUNDARY
FIX, 1
FIX, 2
FIX, 3

*MATERIAL,NAME=SANDSTONE
*ELASTIC
13990000000.0, .29
*DENSITY
2397.0
*SOLID SECTION,ELSET=Eall,MATERIAL=SANDSTONE

*GAP,ELSET=G1
0.001,0.,0.,1.

** Just test under its own weight
*STEP
*STATIC
*DLOAD
Eall,GRAV,9.81,0.,0.,-1.
*NODE FILE
U
*EL FILE
S
*END STEP
