*node, nset=Nall
1, 0.000000e+000, 0.000000e+000, 1.000000e+000
2, 0.000000e+000, 0.000000e+000, 0.000000e+000
3, 0.000000e+000, 5.000000e+001, 1.000000e+000
4, 0.000000e+000, 5.000000e+001, 0.000000e+000
5, 2.000000e+002, 0.000000e+000, 1.000000e+000
6, 2.000000e+002, 0.000000e+000, 0.000000e+000
7, 2.000000e+002, 5.000000e+001, 1.000000e+000
8, 2.000000e+002, 5.000000e+001, 0.000000e+000
9, 0.000000e+000, 1.000000e+000, 1.000000e+000
10, 0.000000e+000, 2.000000e+000, 1.000000e+000
11, 0.000000e+000, 3.000000e+000, 1.000000e+000
12, 0.000000e+000, 4.000000e+000, 1.000000e+000
13, 0.000000e+000, 5.000000e+000, 1.000000e+000
14, 0.000000e+000, 6.000000e+000, 1.000000e+000
15, 0.000000e+000, 7.000000e+000, 1.000000e+000
16, 0.000000e+000, 8.000000e+000, 1.000000e+000
17, 0.000000e+000, 9.000000e+000, 1.000000e+000
18, 0.000000e+000, 1.000000e+001, 1.000000e+000
19, 0.000000e+000, 1.100000e+001, 1.000000e+000
20, 0.000000e+000, 1.200000e+001, 1.000000e+000
** ... 20482 like lines cut
*nset, nset=z_constraint
4, 58, 59, 60, 61, 62, 63, 
64, 65, 66, 67, 68, 69, 70, 71, 
72, 73, 74, 75, 76, 77, 78, 79, 
80, 81, 82, 83, 84, 85, 86, 87, 
88, 89, 90, 91, 92, 93, 94, 95, 
96, 97, 98, 99, 100, 101, 102, 103, 
104, 105, 106, 2, 
*nset, nset=y_constraint
2, 1, 
*nset, nset=x_constraint
4, 9, 10, 11, 12, 13, 14, 
15, 16, 17, 18, 19, 20, 21, 22, 
23, 24, 25, 26, 27, 28, 29, 30, 
31, 32, 33, 34, 35, 36, 37, 38, 
39, 40, 41, 42, 43, 44, 45, 46, 
47, 48, 49, 50, 51, 52, 53, 54, 
55, 56, 57, 58, 59, 60, 61, 62, 
63, 64, 65, 66, 67, 68, 69, 70, 
71, 72, 73, 74, 75, 76, 77, 78, 
79, 80, 81, 82, 83, 84, 85, 86, 
87, 88, 89, 90, 91, 92, 93, 94, 
95, 96, 97, 98, 99, 100, 101, 102, 
103, 104, 105, 106, 2, 1, 3, 
*element, elset=eall,type=C3D8
21505, 1, 2, 58, 9, 404, 205, 1001, 20304, 
21506, 404, 205, 1001, 20304, 405, 206, 1002, 20305, 
21507, 405, 206, 1002, 20305, 406, 207, 1003, 20306, 
21508, 406, 207, 1003, 20306, 407, 208, 1004, 20307, 
21509, 407, 208, 1004, 20307, 408, 209, 1005, 20308, 
21510, 408, 209, 1005, 20308, 409, 210, 1006, 20309, 
21511, 409, 210, 1006, 20309, 410, 211, 1007, 20310, 
21512, 410, 211, 1007, 20310, 411, 212, 1008, 20311, 
21513, 411, 212, 1008, 20311, 412, 213, 1009, 20312, 
21514, 412, 213, 1009, 20312, 413, 214, 1010, 20313, 
21515, 413, 214, 1010, 20313, 414, 215, 1011, 20314, 
21516, 414, 215, 1011, 20314, 415, 216, 1012, 20315, 
21517, 415, 216, 1012, 20315, 416, 217, 1013, 20316, 
21518, 416, 217, 1013, 20316, 417, 218, 1014, 20317, 
21519, 417, 218, 1014, 20317, 418, 219, 1015, 20318, 
21520, 418, 219, 1015, 20318, 419, 220, 1016, 20319, 
21521, 419, 220, 1016, 20319, 420, 221, 1017, 20320, 
21522, 420, 221, 1017, 20320, 421, 222, 1018, 20321, 
21523, 421, 222, 1018, 20321, 422, 223, 1019, 20322, 
21524, 422, 223, 1019, 20322, 423, 224, 1020, 20323, 
** ... 9980 like lines cut

*elset, elset=pressureF2
21704, 21904, 22104, 22304, 22504, 22704, 22904, 
23104, 23304, 23504, 23704, 23904, 24104, 24304, 24504, 
24704, 24904, 25104, 25304, 25504, 25704, 25904, 26104, 
26304, 26504, 26704, 26904, 27104, 27304, 27504, 27704, 
27904, 28104, 28304, 28504, 28704, 28904, 29104, 29304, 
29504, 29704, 29904, 30104, 30304, 30504, 30704, 30904, 
31104, 31304, 31504, 

*MATERIAL,NAME=steel
*ELASTIC
210000,0.3

*SOLID SECTION,MATERIAL=steel,ELSET=eall

*BOUNDARY
x_constraint,1
y_constraint,2
z_constraint,3

*STEP
*STATIC

*DLOAD
pressureF2, P2, 100.

*NODE FILE
U
*EL FILE
S

*END STEP
