** add mesh file or file with groups into calculation
** after 'input=' name of file with extention
** file should be placed in working folder (change filename if needed)

*node, nset=Nall
1, 0.000000e+00, 0.000000e+00, 1.000000e+01
2, 0.000000e+00, 0.000000e+00, 0.000000e+00
3, 0.000000e+00, 1.000000e+00, 1.000000e+01
4, 0.000000e+00, 1.000000e+00, 0.000000e+00
5, 1.000000e+00, 0.000000e+00, 1.000000e+01
6, 1.000000e+00, 0.000000e+00, 0.000000e+00
7, 1.000000e+00, 1.000000e+00, 1.000000e+01
8, 1.000000e+00, 1.000000e+00, 0.000000e+00
9, 0.000000e+00, 1.000000e+00, 5.000000e+00
10, 0.000000e+00, 1.000000e+00, 0.000000e+00
11, 0.000000e+00, 2.000000e+00, 5.000000e+00
12, 0.000000e+00, 2.000000e+00, 0.000000e+00
13, 1.000000e+00, 1.000000e+00, 5.000000e+00
14, 1.000000e+00, 1.000000e+00, 0.000000e+00
15, 1.000000e+00, 2.000000e+00, 5.000000e+00
16, 1.000000e+00, 2.000000e+00, 0.000000e+00
17, 0.000000e+00, 0.000000e+00, 5.000000e-01
18, 0.000000e+00, 0.000000e+00, 1.000000e+00
19, 0.000000e+00, 0.000000e+00, 1.500000e+00
20, 0.000000e+00, 0.000000e+00, 2.000000e+00
** ... 922 like lines cut
*nset, nset=fix
2, 56, 331, 332, 8, 4, 6, 
97, 377, 378, 96, 375, 376, 99, 381, 
382, 221, 673, 674, 675, 676, 
*nset, nset=fix2
10, 16, 12, 14, 140, 431, 432, 
141, 433, 434, 120, 407, 408, 143, 437, 
438, 259, 793, 794, 795, 796, 
*nset, nset=master
3, 8, 4, 7, 37, 38, 39, 
40, 41, 42, 43, 44, 45, 46, 47, 
48, 49, 50, 51, 52, 53, 54, 55, 
311, 312, 313, 314, 315, 316, 317, 318, 
319, 320, 321, 322, 323, 324, 325, 326, 
327, 328, 329, 330, 77, 78, 79, 80, 
81, 82, 83, 84, 85, 86, 87, 88, 
89, 90, 91, 92, 93, 94, 95, 355, 
356, 357, 358, 359, 360, 361, 362, 363, 
364, 365, 366, 367, 368, 369, 370, 371, 
372, 373, 374, 99, 381, 382, 100, 383, 
384, 202, 203, 204, 205, 206, 207, 208, 
209, 210, 211, 212, 213, 214, 215, 216, 
217, 218, 219, 220, 615, 616, 617, 618, 
619, 620, 621, 622, 623, 624, 625, 626, 
627, 628, 629, 630, 631, 632, 633, 634, 
635, 636, 637, 638, 639, 640, 641, 642, 
643, 644, 645, 646, 647, 648, 649, 650, 
651, 652, 653, 654, 655, 656, 657, 658, 
659, 660, 661, 662, 663, 664, 665, 666, 
667, 668, 669, 670, 671, 672, 
*nset, nset=slave
10, 9, 13, 14, 141, 433, 434, 
142, 435, 436, 101, 102, 103, 104, 105, 
106, 107, 108, 109, 385, 386, 387, 388, 
389, 390, 391, 392, 393, 394, 121, 122, 
123, 124, 125, 126, 127, 128, 129, 409, 
410, 411, 412, 413, 414, 415, 416, 417, 
418, 241, 242, 243, 244, 245, 246, 247, 
248, 249, 737, 738, 739, 740, 741, 742, 
743, 744, 745, 746, 747, 748, 749, 750, 
751, 752, 753, 754, 755, 756, 757, 758, 
759, 760, 761, 762, 763, 764, 
*nset, nset=Fy
1, 3, 5, 7, 36, 309, 310, 
98, 379, 380, 76, 353, 354, 100, 383, 
384, 222, 677, 678, 679, 680, 
*element, elset=C3D20,type=C3D20
409, 1, 35, 163, 36, 98, 201, 261, 222, 308, 495, 498, 309, 595, 
802, 801, 680, 379, 594, 803, 677, 
410, 98, 201, 261, 222, 5, 75, 164, 76, 595, 802, 801, 680, 352, 
499, 500, 353, 380, 614, 804, 679, 
411, 36, 163, 55, 3, 222, 261, 220, 100, 498, 497, 330, 310, 801, 
805, 653, 678, 677, 803, 672, 383, 
412, 222, 261, 220, 100, 76, 164, 95, 7, 801, 805, 653, 678, 500, 
501, 374, 354, 679, 804, 652, 384, 
413, 35, 34, 162, 163, 201, 200, 262, 261, 307, 492, 496, 495, 593, 
807, 806, 802, 594, 592, 808, 803, 
414, 201, 200, 262, 261, 75, 74, 165, 164, 593, 807, 806, 802, 351, 
502, 503, 499, 614, 613, 809, 804, 
415, 163, 162, 54, 55, 261, 262, 219, 220, 496, 494, 329, 497, 806, 
810, 651, 805, 803, 808, 671, 672, 
416, 261, 262, 219, 220, 164, 165, 94, 95, 806, 810, 651, 805, 503, 
504, 373, 501, 804, 809, 650, 652, 
417, 34, 33, 161, 162, 200, 199, 263, 262, 306, 489, 493, 492, 591, 
812, 811, 807, 592, 590, 813, 808, 
418, 200, 199, 263, 262, 74, 73, 166, 165, 591, 812, 811, 807, 350, 
505, 506, 502, 613, 612, 814, 809, 
** ... 220 like lines cut

*elset, elset=beam
409, 410, 411, 412, 413, 414, 415, 
416, 417, 418, 419, 420, 421, 422, 423, 
424, 425, 426, 427, 428, 429, 430, 431, 
432, 433, 434, 435, 436, 437, 438, 439, 
440, 441, 442, 443, 444, 445, 446, 447, 
448, 449, 450, 451, 452, 453, 454, 455, 
456, 457, 458, 459, 460, 461, 462, 463, 
464, 465, 466, 467, 468, 469, 470, 471, 
472, 473, 474, 475, 476, 477, 478, 479, 
480, 481, 482, 483, 484, 485, 486, 487, 
488, 
*elset, elset=reinf
489, 490, 491, 492, 493, 494, 495, 
496, 497, 498, 499, 500, 501, 502, 503, 
504, 505, 506, 507, 508, 509, 510, 511, 
512, 513, 514, 515, 516, 517, 518, 519, 
520, 521, 522, 523, 524, 525, 526, 527, 
528, 
** Surfaces based on master
*SURFACE, NAME=Smaster
411, S5
487, S5
412, S5
488, S5
483, S5
479, S5
475, S5
471, S5
467, S5
463, S5
459, S5
455, S5
451, S5
447, S5
443, S5
439, S5
435, S5
431, S5
427, S5
423, S5
** ... 20 like lines cut
** Surfaces based on slave
*SURFACE, NAME=Sslave
489, S3
525, S3
490, S3
526, S3
521, S3
517, S3
513, S3
509, S3
505, S3
501, S3
497, S3
493, S3
522, S3
518, S3
514, S3
510, S3
506, S3
502, S3
498, S3
494, S3
** Names based on reinf
*NSET,NSET=Nreinf 
9, 
10, 
11, 
12, 
13, 
14, 
15, 
16, 
101, 
102, 
103, 
104, 
105, 
106, 
107, 
108, 
109, 
110, 
111, 
112, 
** ... 301 like lines cut
*ELSET,ELSET=Ereinf 
489, 
490, 
491, 
492, 
493, 
494, 
495, 
496, 
497, 
498, 
499, 
500, 
501, 
502, 
503, 
504, 
505, 
506, 
507, 
508, 
** ... 20 like lines cut


*MATERIAL,NAME=some
*ELASTIC
2e11,0.3

*MATERIAL,NAME=weak
*ELASTIC
1e1,0.3


**for body elements, 2d plane stress and strain
*SOLID SECTION,MATERIAL=some,ELSET=beam
*SOLID SECTION,MATERIAL=weak,ELSET=reinf





*CONTACT PAIR,INTERACTION=SI1,TYPE=SURFACE TO SURFACE
Sslave,Smaster


*SURFACE INTERACTION,NAME=SI1
*SURFACE BEHAVIOR,PRESSURE-OVERCLOSURE=TIED
1e-2

*FRICTION
1,1e-2






*BOUNDARY
fix,1,3,0


*AMPLITUDE,TIME=TOTAL TIME,NAME=A1
0,0,2,1

*STEP
*STATIC
0.25,1,


** boundary conditions (load)
*CLOAD
Fy,2,1e6


*NODE FILE
U

*EL FILE
S
*END STEP






*STEP
*STATIC
0.25,1,


*CHANGE SOLID SECTION,MATERIAL=some,ELSET=reinf,

*CHANGE SURFACE BEHAVIOR,INTERACTION=SI1
*SURFACE BEHAVIOR,PRESSURE-OVERCLOSURE=TIED
1e16

*CHANGE FRICTION,INTERACTION=SI1
*FRICTION
1,1e16

*NODE FILE
U

*EL FILE
S
*END STEP








