** add mesh file or file with groups into calculation
** after 'input=' name of file with extention
** file should be placed in working folder (change filename if needed)

*node, nset=Nall
1, 1.000000e+00, 5.000000e+00, 0.000000e+00
2, 1.000000e+00, 5.000000e+00, 1.000000e+00
3, 1.000000e+00, 0.000000e+00, 1.000000e+00
4, 1.000000e+00, 0.000000e+00, 0.000000e+00
5, 0.000000e+00, 5.000000e+00, 0.000000e+00
6, 0.000000e+00, 5.000000e+00, 1.000000e+00
7, 0.000000e+00, 0.000000e+00, 0.000000e+00
8, 0.000000e+00, 0.000000e+00, 1.000000e+00
9, 1.000000e+00, 1.000000e+01, 1.000000e+00
10, 1.000000e+00, 1.000000e+01, 0.000000e+00
11, 0.000000e+00, 1.000000e+01, 1.000000e+00
12, 0.000000e+00, 1.000000e+01, 0.000000e+00
13, 1.000000e+00, 0.000000e+00, 2.500000e-01
14, 1.000000e+00, 0.000000e+00, 5.000000e-01
15, 1.000000e+00, 0.000000e+00, 7.500000e-01
16, 1.000000e+00, 2.500000e-01, 1.000000e+00
17, 1.000000e+00, 5.000000e-01, 1.000000e+00
18, 1.000000e+00, 7.500000e-01, 1.000000e+00
19, 1.000000e+00, 1.000000e+00, 1.000000e+00
20, 1.000000e+00, 1.250000e+00, 1.000000e+00
** ... 5796 like lines cut
*nset, nset=fix1
4, 7, 85, 1036, 86, 1037, 87, 
1038, 1039, 
*nset, nset=fix2
12, 10, 154, 1112, 155, 1113, 156, 
1114, 1115, 
*nset, nset=load
132, 1088, 133, 1089, 134, 1090, 135, 
1091, 136, 1092, 137, 1093, 138, 1094, 139, 
1095, 140, 1096, 141, 1097, 142, 1098, 143, 
1099, 144, 1100, 145, 1101, 146, 1102, 147, 
1103, 148, 1104, 149, 1105, 150, 1106, 1107, 
8, 88, 1040, 89, 1041, 90, 1042, 91, 
1043, 92, 1044, 93, 1045, 94, 1046, 95, 
1047, 96, 1048, 97, 1049, 98, 1050, 99, 
1051, 100, 1052, 101, 1053, 102, 1054, 103, 
1055, 104, 1056, 105, 1057, 106, 1058, 1059, 
6, 9, 63, 1012, 64, 1013, 65, 1014, 
1015, 107, 1060, 108, 1061, 109, 1062, 1063, 
3, 594, 2555, 2556, 575, 2557, 2558, 576, 
2559, 2560, 2561, 577, 2562, 2563, 2564, 578, 
2565, 2566, 2567, 579, 2568, 2569, 2570, 580, 
2571, 2572, 2573, 581, 2574, 2575, 2576, 582, 
2577, 2578, 2579, 583, 2580, 2581, 2582, 584, 
2583, 2584, 2585, 585, 2586, 2587, 2588, 586, 
2589, 2590, 2591, 587, 2592, 2593, 2594, 588, 
2595, 2596, 2597, 589, 2598, 2599, 2600, 590, 
** ... 76 like lines cut
*nset, nset=sec
6, 1433, 274, 1434, 1435, 275, 1436, 
1437, 1438, 276, 1439, 1440, 1441, 1442, 277, 
1443, 1444, 1445, 278, 1446, 1447, 1448, 279, 
1449, 1450, 1451, 1452, 1453, 280, 1454, 1455, 
1456, 281, 1457, 1458, 1459, 282, 1460, 1461, 
1462, 1463, 1464, 1465, 283, 1466, 1467, 1468, 
1469, 1470, 284, 1471, 1472, 1473, 1474, 1475, 
1476, 1477, 1478, 63, 1012, 64, 1013, 65, 
1014, 1015, 1, 57, 1004, 58, 1005, 59, 
1006, 1007, 54, 1000, 55, 1001, 56, 1002, 
1003, 5, 2, 60, 1008, 61, 1009, 62, 
1010, 1011, 
*element, elset=C3D10,type=C3D10
1753, 779, 397, 29, 217, 3265, 1856, 3264, 3266, 3267, 1213, 
1754, 628, 885, 590, 629, 3268, 3269, 2720, 2724, 3270, 2722, 
1755, 276, 278, 239, 54, 1448, 3272, 3271, 1441, 1446, 1366, 
1756, 422, 391, 108, 423, 3273, 1838, 1983, 1986, 3274, 1984, 
1757, 397, 779, 780, 217, 3265, 3276, 3275, 3267, 3266, 3277, 
1758, 935, 920, 927, 911, 3279, 3281, 3278, 3280, 3283, 3282, 
1759, 482, 468, 834, 835, 2174, 3286, 3284, 3285, 3288, 3287, 
1760, 928, 671, 640, 718, 3290, 2900, 3289, 3291, 3293, 3292, 
1761, 818, 783, 806, 829, 3295, 3297, 3294, 3296, 3299, 3298, 
1762, 863, 655, 946, 495, 3301, 3303, 3300, 3302, 3305, 3304, 
1763, 469, 439, 375, 837, 2141, 3308, 3306, 3307, 3310, 3309, 
1764, 428, 824, 817, 803, 3312, 3314, 3311, 3313, 3316, 3315, 
1765, 788, 355, 787, 851, 3318, 3320, 3317, 3319, 3322, 3321, 
1766, 793, 792, 228, 271, 3324, 3326, 3323, 3325, 3327, 1384, 
1767, 265, 241, 796, 257, 1432, 3329, 3328, 1429, 1374, 3330, 
1768, 250, 269, 788, 789, 1417, 3333, 3331, 3332, 3335, 3334, 
1769, 155, 681, 565, 648, 2924, 3336, 2512, 2812, 2940, 3337, 
1770, 591, 908, 590, 179, 3338, 3339, 2606, 2604, 3340, 2602, 
1771, 250, 788, 776, 789, 3331, 3342, 3341, 3332, 3334, 3343, 
1772, 332, 349, 343, 820, 1673, 1740, 1729, 3344, 3346, 3345, 
** ... 3133 like lines cut

** Surfaces based on sec
*SURFACE, NAME=Ssec
3144, S2
2266, S3
4286, S4
4348, S2
4286, S2
2072, S1
2072, S2
4670, S1
1956, S3
1956, S4
1953, S2
4623, S1
4623, S3
2489, S3
1953, S1
3273, S4
3963, S4
2695, S3
2402, S2
3273, S2
** ... 47 like lines cut

*MATERIAL,NAME=steel
*ELASTIC
29000,0.3




**for body elements, 2d plane stress and strain
*SOLID SECTION,MATERIAL=steel,ELSET=C3D10




** directions <dir> can be 1,2,3 for bodies
** and 1 to 6 for shells and beams (4,5,6 - to fix rotation)
**
*BOUNDARY
fix1,1,3,0
fix2,3,3,0

** repeat last line, if needed


** surfaces are used to define contact (including tied contact).
*SURFACE,NAME=secs,TYPE=NODE
sec






*STEP
*STATIC

** boundary conditions (load)

** to create file <name>.dlo based on nodal set <name>
** run mesh file in cgx (pre-processor mode) and apply cards below:
** comp <name> do
** send <name> abq pres <value>
** <name>.dlo file will be created in working folder

*DLOAD
** Pressure based on load
2072, P2, 1.000000e+00
1956, P3, 1.000000e+00
2626, P1, 1.000000e+00
2695, P3, 1.000000e+00
2402, P2, 1.000000e+00
3273, P2, 1.000000e+00
3963, P3, 1.000000e+00
2167, P3, 1.000000e+00
1899, P2, 1.000000e+00
4043, P1, 1.000000e+00
4653, P2, 1.000000e+00
4431, P2, 1.000000e+00
3633, P4, 1.000000e+00
3438, P1, 1.000000e+00
2615, P3, 1.000000e+00
2942, P1, 1.000000e+00
2177, P4, 1.000000e+00
2718, P3, 1.000000e+00
2593, P4, 1.000000e+00
2701, P4, 1.000000e+00
** ... 316 like lines cut


** Output (frd file)
**Displacements
*NODE FILE
U

**Stress (add other types, if needed)
*EL FILE
S


** Section forces, section moments and section areas
** (key=SOF or key=SOM or key=SOAREA),
** only makes sense for structural calculations
** define surface with card (see general>contact)
** sample

*SECTION PRINT,SURFACE=Ssec,NAME=SP1
SOF,SOM







*END STEP












