*HEADING
Model: ip Date: 07/02/2010  19:20:09
**
** COORDINATES
**
*NODE, NSET=NALL
       1,   70.000000    ,   35.000000    ,   0.0000000
       2,   35.000000    ,   70.000000    ,   0.0000000
       3,   0.0000000    ,   35.000000    ,   0.0000000
       4,   35.000000    ,   0.0000000    ,   0.0000000
       5,   60.000000    ,   35.000000    ,   0.0000000
       6,   35.000000    ,   60.000000    ,   0.0000000
       7,   10.000000    ,   35.000000    ,   0.0000000
       8,   35.000000    ,   10.000000    ,   0.0000000
       9,   69.986232    ,   35.981619    ,   0.0000000
      10,   69.944939    ,   36.962466    ,   0.0000000
      11,   69.876152    ,   37.941768    ,   0.0000000
      12,   69.779927    ,   38.918757    ,   0.0000000
      13,   69.656339    ,   39.892662    ,   0.0000000
      14,   69.505486    ,   40.862718    ,   0.0000000
      15,   69.327485    ,   41.828161    ,   0.0000000
      16,   69.122477    ,   42.788233    ,   0.0000000
      17,   68.890623    ,   43.742177    ,   0.0000000
      18,   68.632106    ,   44.689243    ,   0.0000000
      19,   68.347129    ,   45.628686    ,   0.0000000
      20,   68.035917    ,   46.559767    ,   0.0000000
** ... 1699 like lines cut
**
** ELEMENT TOPOLOGY
**
*ELEMENT, TYPE=CPE8  ,ELSET=E1
       1,      77,      79,     386,     385,      78,     798,     799,     800
       2,      79,      81,     387,     386,      80,     801,     802,     798
       3,      81,      83,     388,     387,      82,     803,     804,     801
       4,      83,      85,     389,     388,      84,     805,     806,     803
       5,      85,      87,     390,     389,      86,     807,     808,     805
       6,      87,      89,     391,     390,      88,     809,     810,     807
       7,      89,      91,     392,     391,      90,     811,     812,     809
       8,      91,      93,     393,     392,      92,     813,     814,     811
       9,      93,      95,     394,     393,      94,     815,     816,     813
      10,      95,      97,     395,     394,      96,     817,     818,     815
      11,      97,      99,     396,     395,      98,     819,     820,     817
      12,      99,     101,     397,     396,     100,     821,     822,     819
      13,     101,     103,     398,     397,     102,     823,     824,     821
      14,     103,     105,     399,     398,     104,     825,     826,     823
      15,     105,     107,     400,     399,     106,     827,     828,     825
      16,     107,     109,     401,     400,     108,     829,     830,     827
      17,     109,     111,     402,     401,     110,     831,     832,     829
      18,     111,     113,     403,     402,     112,     833,     834,     831
      19,     113,     115,     404,     403,     114,     835,     836,     833
      20,     115,     117,     405,     404,     116,     837,     838,     835
** ... 489 like lines cut
**
** MATERIAL PROPERTIES
**
**
** M1
*MATERIAL, NAME=M1
*ELASTIC, TYPE=ISOTROPIC
    200000.    ,  0.30000
*DENSITY
   0.785000E-08,
*EXPANSION, TYPE=ISO
   0.120000E-04,
**
** EARTH SPRINGS
**
**
** FIXED FREEDOMS
**
*BOUNDARY
       1, 2, 3
       2, 1
       2, 3
       3, 2, 3
       4, 1
       4, 3
       5, 2, 3
       6, 1
       6, 3
       7, 2, 3
       8, 1
       8, 3
*ORIENTATION,NAME=OR1,SYSTEM=CYLINDRICAL
0.,0.,-1.,0.,0.,1.
*Solid Section, elset=E1, material=M1,ORIENTATION=OR1
*INITIAL CONDITIONS,TYPE=TEMPERATURE
Nall, 0.0
**
** LOADING
**
*Step
Case    1  hgh
*Static, SOLVER=SPOOLES
1.0, 1.0, 1e-05, 1.0
**
** LOADS
**
**
**
**  Load  Case
**     1   1 Line  L7   , traction      0.0 , Pressure  50.
**
*Cload,OP=NEW
      7,1,  -16.370869
      7,2, -0.24766048E-03
      8,1, -0.24766048E-03
      8,2,  -16.370869
    307,1,  -65.382578
    307,2,  -2.5688885
    308,1,  -32.640806
    308,2,  -2.5688872
    309,1,  -64.979473
    309,2,  -7.6908274
    310,1,  -32.338633
    310,2,  -5.1219363
    311,1,  -64.175747
    311,2,  -12.765350
    312,1,  -31.837081
    312,2,  -7.6434070
    313,1,  -62.976357
    313,2,  -17.761170
    314,1,  -31.139243
    314,2,  -10.117754
** ... 62 like lines cut
**
**
**  Load  Case
**     2   1 Line  L6   , traction      0.0 , Pressure  50.
**
      6,1, -0.24766048E-03
      6,2,   16.370869
      7,1,  -16.370869
      7,2,  0.24766048E-03
    268,1,  -2.5688885
    268,2,   65.382578
    269,1,  -2.5688872
    269,2,   32.640806
    270,1,  -7.6908274
    270,2,   64.979473
    271,1,  -5.1219363
    271,2,   32.338633
    272,1,  -12.765350
    272,2,   64.175747
    273,1,  -7.6434070
    273,2,   31.837081
    274,1,  -17.761170
    274,2,   62.976357
    275,1,  -10.117754
    275,2,   31.139243
** ... 62 like lines cut
**
**
**  Load  Case
**     3   1 Line  L5   , traction      0.0 , Pressure  50.
**
      5,1,   16.370869
      5,2,  0.24766048E-03
      6,1,  0.24766048E-03
      6,2,   16.370869
    229,1,   65.382578
    229,2,   2.5688885
    230,1,   32.640806
    230,2,   2.5688872
    231,1,   64.979473
    231,2,   7.6908274
    232,1,   32.338633
    232,2,   5.1219363
    233,1,   64.175747
    233,2,   12.765350
    234,1,   31.837081
    234,2,   7.6434070
    235,1,   62.976357
    235,2,   17.761170
    236,1,   31.139243
    236,2,   10.117754
** ... 62 like lines cut
**
**
**  Load  Case
**     4   1 Line  L8   , traction      0.0 , Pressure  50.
**
      5,1,   16.370869
      5,2, -0.24766048E-03
      8,1,  0.24766048E-03
      8,2,  -16.370869
    346,1,   2.5688885
    346,2,  -65.382578
    347,1,   2.5688872
    347,2,  -32.640806
    348,1,   7.6908274
    348,2,  -64.979473
    349,1,   5.1219363
    349,2,  -32.338633
    350,1,   12.765350
    350,2,  -64.175747
    351,1,   7.6434070
    351,2,  -31.837081
    352,1,   17.761170
    352,2,  -62.976357
    353,1,   10.117754
    353,2,  -31.139243
** ... 62 like lines cut
** OUTPUT REQUESTS
**
*El Print,GLOBAL=NO
S
*Node Print
U, RF
*NODE FILE
U, RF
*EL FILE,POSITION=AVERAGED AT NODES,GLOBAL=NO
S
*End Step
