*Heading
** Langle with tool use Case created by E.Kappel
** PART DATA
*Node
      1, -0.0339411013,           0., 0.0161421001
      2, -0.0341178998,           0., 0.0163189005
      3, -0.0342946984,           0., 0.0164957009
      4, -0.0344715007,           0., 0.0166724995
      5, -0.0346481986,           0., 0.0168491993
      6, -0.0348250009,           0., 0.0170259997
      7, -0.0350017995,           0., 0.0172028001
      8, -0.0351786017,           0., 0.0173796006
      9, -0.0353552997,           0., 0.0175563004
     10, -0.0332340002,           0., 0.0168491993
     11, -0.033587601,           0., 0.0172028001
     12, -0.0339411013,           0., 0.0175563004
     13, -0.0342946984,           0., 0.0179098994
     14, -0.0346481986,           0., 0.0182633996
     15, -0.0325268991,           0., 0.0175563004
     16, -0.0327037014,           0., 0.0177331008
     17,   -0.0328805,           0., 0.0179098994
     18, -0.0330572017,           0., 0.0180866998
     19, -0.0332340002,           0., 0.0182633996
     20, -0.0334107988,           0.,    0.0184402
** ... 10737 like lines cut
*Element, type=C3D20
   1,     1,    15,   738,   740,     3,    17,   745,   743,    10,   739,   742,   741,    11,   746,   747,
        744,     2,    16,   749,   748
   2,     3,    17,   745,   743,     5,    19,   752,   750,    11,   746,   747,   744,    12,   753,   754,
        751,     4,    18,   756,   755
   3,     5,    19,   752,   750,     7,    21,   759,   757,    12,   753,   754,   751,    13,   760,   761,
        758,     6,    20,   763,   762
   4,     7,    21,   759,   757,     9,    23,   766,   764,    13,   760,   761,   758,    14,   767,   768,
        765,     8,    22,   770,   769
   5,    15,    29,   771,   738,    17,    31,   774,   745,    24,   772,   773,   739,    25,   775,   776,
        746,    16,    30,   777,   749
   6,    17,    31,   774,   745,    19,    33,   778,   752,    25,   775,   776,   746,    26,   779,   780,
        753,    18,    32,   781,   756
   7,    19,    33,   778,   752,    21,    35,   782,   759,    26,   779,   780,   753,    27,   783,   784,
        760,    20,    34,   785,   763
   8,    21,    35,   782,   759,    23,    37,   786,   766,    27,   783,   784,   760,    28,   787,   788,
        767,    22,    36,   789,   770
   9,    29,    43,   790,   771,    31,    45,   793,   774,    38,   791,   792,   772,    39,   794,   795,
        775,    30,    44,   796,   777
  10,    31,    45,   793,   774,    33,    47,   797,   778,    39,   794,   795,   775,    40,   798,   799,
        779,    32,    46,   800,   781
** ... 4140 like lines cut
*Nset, nset=ALL-NODES-PART, generate
     1,  10757,      1
*Elset, elset=ALL-ELEMENTS-PART, generate
    1,  2080,     
*Elset, elset=CORNER_ELEMENTS_PART
   89,   90,   91,   92,   93,   94,   95,   96,   97,   98,   99,  100,  101,  102,  103,  104
  105,  106,  107,  108,  109,  110,  111,  112,  113,  114,  115,  116,  117,  118,  119,  120
  297,  298,  299,  300,  301,  302,  303,  304,  305,  306,  307,  308,  309,  310,  311,  312
  313,  314,  315,  316,  317,  318,  319,  320,  321,  322,  323,  324,  325,  326,  327,  328
  505,  506,  507,  508,  509,  510,  511,  512,  513,  514,  515,  516,  517,  518,  519,  520
  521,  522,  523,  524,  525,  526,  527,  528,  529,  530,  531,  532,  533,  534,  535,  536
  713,  714,  715,  716,  717,  718,  719,  720,  721,  722,  723,  724,  725,  726,  727,  728
  729,  730,  731,  732,  733,  734,  735,  736,  737,  738,  739,  740,  741,  742,  743,  744
  921,  922,  923,  924,  925,  926,  927,  928,  929,  930,  931,  932,  933,  934,  935,  936
  937,  938,  939,  940,  941,  942,  943,  944,  945,  946,  947,  948,  949,  950,  951,  952
 1129, 1130, 1131, 1132, 1133, 1134, 1135, 1136, 1137, 1138, 1139, 1140, 1141, 1142, 1143, 1144
 1145, 1146, 1147, 1148, 1149, 1150, 1151, 1152, 1153, 1154, 1155, 1156, 1157, 1158, 1159, 1160
 1337, 1338, 1339, 1340, 1341, 1342, 1343, 1344, 1345, 1346, 1347, 1348, 1349, 1350, 1351, 1352
 1353, 1354, 1355, 1356, 1357, 1358, 1359, 1360, 1361, 1362, 1363, 1364, 1365, 1366, 1367, 1368
 1545, 1546, 1547, 1548, 1549, 1550, 1551, 1552, 1553, 1554, 1555, 1556, 1557, 1558, 1559, 1560
 1561, 1562, 1563, 1564, 1565, 1566, 1567, 1568, 1569, 1570, 1571, 1572, 1573, 1574, 1575, 1576
 1753, 1754, 1755, 1756, 1757, 1758, 1759, 1760, 1761, 1762, 1763, 1764, 1765, 1766, 1767, 1768
 1769, 1770, 1771, 1772, 1773, 1774, 1775, 1776, 1777, 1778, 1779, 1780, 1781, 1782, 1783, 1784
 1961, 1962, 1963, 1964, 1965, 1966, 1967, 1968, 1969, 1970, 1971, 1972, 1973, 1974, 1975, 1976
 1977, 1978, 1979, 1980, 1981, 1982, 1983, 1984, 1985, 1986, 1987, 1988, 1989, 1990, 1991, 1992	
**------------------------------
**------------------------------
**------------------------------
** Tool DATA
**------------------------------	
**------------------------------
**------------------------------
**  
*Node
20001,	-0.050083298,	0,	0
20002,	-0.050083298,	0,	0.00125
20003,	-0.050083298,	0,	0.0025
20004,	-0.050083298,	0,	0.00375
20005,	-0.050083298,	0,	0.005
20006,	-0.050083298,	0,	0.00625
20007,	-0.050083298,	0,	0.0075
20008,	-0.050083298,	0,	0.00875
20009,	-0.050083298,	0,	0.01
20010,	-0.048833299,	0,	0
20011,	-0.048833299,	0,	0.0025
20012,	-0.048833299,	0,	0.005
20013,	-0.048833299,	0,	0.0075
20014,	-0.048833299,	0,	0.01
20015,	-0.047583301,	0,	0
20016,	-0.047583301,	0,	0.00125
20017,	-0.047583301,	0,	0.0025
20018,	-0.047583301,	0,	0.00375
20019,	-0.047583301,	0,	0.005
20020,	-0.047583301,	0,	0.00625
** ... 20557 like lines cut
*Element, type=C3D20
2801,20001,20015,21198,21200,20003,20017,21205,21203,20010,21199,21202,21201,
20011,21206,21207,21204,20002,20016,21209,21208
2802,20003,20017,21205,21203,20005,20019,21212,21210,20011,21206,21207,21204,
20012,21213,21214,21211,20004,20018,21216,21215
2803,20005,20019,21212,21210,20007,20021,21219,21217,20012,21213,21214,21211,
20013,21220,21221,21218,20006,20020,21223,21222
2804,20007,20021,21219,21217,20009,20023,21226,21224,20013,21220,21221,21218,
20014,21227,21228,21225,20008,20022,21230,21229
2805,20015,20029,21231,21198,20017,20031,21234,21205,20024,21232,21233,21199,
20025,21235,21236,21206,20016,20030,21237,21209
2806,20017,20031,21234,21205,20019,20033,21238,21212,20025,21235,21236,21206,
20026,21239,21240,21213,20018,20032,21241,21216
2807,20019,20033,21238,21212,20021,20035,21242,21219,20026,21239,21240,21213,
20027,21243,21244,21220,20020,20034,21245,21223
2808,20021,20035,21242,21219,20023,20037,21246,21226,20027,21243,21244,21220,
20028,21247,21248,21227,20022,20036,21249,21230
2809,20029,20043,21250,21231,20031,20045,21253,21234,20038,21251,21252,21232,
20039,21254,21255,21235,20030,20044,21256,21237
2810,20031,20045,21253,21234,20033,20047,21257,21238,20039,21254,21255,21235,
20040,21258,21259,21239,20032,20046,21260,21241
** ... 8668 like lines cut
**------------------------------------------------
*Nset, nset=ALL-NODES-TOOL, generate
    20001,  40577,      1
*Elset, elset=ALL-ELEMENTS-TOOL, generate
    2801,  7144,     1
**-----------------------------------------------
*Nset, nset=Y-SYMM-PART, generate
   1,  737,    1   
*Nset, nset=Y-SYMM, generate
    20001,  21197,     1
*Nset, nset=X-SYMM-PART, generate
   365,	373, 1
*Nset, nset=X-SYMM
20556,	20558,	20560,	20562,	20564,	20975,	
20976,	20977,	20978,	20980,	39713,	39716,	
39720,	39724,	39728,	40264,	40288,	40312,	
40316
*Nset, nset=Z-SYMM-PART, generate
365,365,1
*Nset, nset=Z-SYMM
20001,	20010,	20015,	20024,	20029,	20038,	20043,	20052,	20057,	20066,	20071,	20080,	20085,	20094,	20099,	20108
20113,	20122,	20127,	20136,	20141,	20150,	20155,	20164,	20169,	20178,	20183,	20192,	20201,	20206,	20215,	20220
20229,	20234,	20243,	20248,	20257,	20262,	20271,	20276,	20285,	20290,	20299,	20304,	20313,	20318,	20327,	20332
20341,	20346,	20355,	20360,	20369,	20374,	21198,	21199,	21200,	21201,	21202,	21231,	21232,	21233,	21250,	21251
21252,	21269,	21270,	21271,	21288,	21289,	21290,	21307,	21308,	21309,	21326,	21327,	21328,	21345,	21346,	21347
21364,	21365,	21366,	21383,	21384,	21385,	21402,	21403,	21404,	21421,	21422,	21423,	21440,	21441,	21442,	21459
21460,	21461,	21462,	21463,	21492,	21493,	21494,	21511,	21512,	21513,	21530,	21531,	21532,	21549,	21550,	21551
21568,	21569,	21570,	21587,	21588,	21589,	21606,	21607,	21608,	21625,	21626,	21627,	21644,	21645,	21646,	21663
21664,	21665,	21682,	21683,	21684,	21701,	21702,	21703,	22813,	22814,	22815,	22816,	22817,	22846,	22847,	22848
22865,	22866,	22867,	22884,	22885,	22886,	22903,	22904,	22905,	22922,	22923,	22924,	22941,	22942,	22943,	22960
22961,	22962,	22979,	22980,	22981,	22998,	22999,	23000,	23017,	23018,	23019,	23036,	23037,	23038,	23055,	23056
23057,	23074,	23075,	23076,	23077,	23078,	23107,	23108,	23109,	23126,	23127,	23128,	23145,	23146,	23147,	23164
23165,	23166,	23183,	23184,	23185,	23202,	23203,	23204,	23221,	23222,	23223,	23240,	23241,	23242,	23259,	23260
23261,	23278,	23279,	23280,	23297,	23298,	23299,	23316,	23317,	23318,	24428,	24429,	24430,	24431,	24432,	24461
24462,	24463,	24480,	24481,	24482,	24499,	24500,	24501,	24518,	24519,	24520,	24537,	24538,	24539,	24556,	24557
24558,	24575,	24576,	24577,	24594,	24595,	24596,	24613,	24614,	24615,	24632,	24633,	24634,	24651,	24652,	24653
24670,	24671,	24672,	24689,	24690,	24691,	24692,	24693,	24722,	24723,	24724,	24741,	24742,	24743,	24760,	24761
24762,	24779,	24780,	24781,	24798,	24799,	24800,	24817,	24818,	24819,	24836,	24837,	24838,	24855,	24856,	24857
24874,	24875,	24876,	24893,	24894,	24895,	24912,	24913,	24914,	24931,	24932,	24933,	26043,	26044,	26045,	26046
26047,	26076,	26077,	26078,	26095,	26096,	26097,	26114,	26115,	26116,	26133,	26134,	26135,	26152,	26153,	26154
** ... 45 like lines cut
**-----------------------------------------------
**
*Elset, elset=FLANGE1_LAYER1-1
    1,    5,    9,   13,   17,   21,   25,   29,   33,   37,   41,   45,   49,   53,   57,   61
   65,   69,   73,   77,   81,   85,  209,  213,  217,  221,  225,  229,  233,  237,  241,  245
  249,  253,  257,  261,  265,  269,  273,  277,  281,  285,  289,  293,  417,  421,  425,  429
  433,  437,  441,  445,  449,  453,  457,  461,  465,  469,  473,  477,  481,  485,  489,  493
  497,  501,  625,  629,  633,  637,  641,  645,  649,  653,  657,  661,  665,  669,  673,  677
  681,  685,  689,  693,  697,  701,  705,  709,  833,  837,  841,  845,  849,  853,  857,  861
  865,  869,  873,  877,  881,  885,  889,  893,  897,  901,  905,  909,  913,  917, 1041, 1045
 1049, 1053, 1057, 1061, 1065, 1069, 1073, 1077, 1081, 1085, 1089, 1093, 1097, 1101, 1105, 1109
 1113, 1117, 1121, 1125, 1249, 1253, 1257, 1261, 1265, 1269, 1273, 1277, 1281, 1285, 1289, 1293
 1297, 1301, 1305, 1309, 1313, 1317, 1321, 1325, 1329, 1333, 1457, 1461, 1465, 1469, 1473, 1477
 1481, 1485, 1489, 1493, 1497, 1501, 1505, 1509, 1513, 1517, 1521, 1525, 1529, 1533, 1537, 1541
 1665, 1669, 1673, 1677, 1681, 1685, 1689, 1693, 1697, 1701, 1705, 1709, 1713, 1717, 1721, 1725
 1729, 1733, 1737, 1741, 1745, 1749, 1873, 1877, 1881, 1885, 1889, 1893, 1897, 1901, 1905, 1909
 1913, 1917, 1921, 1925, 1929, 1933, 1937, 1941, 1945, 1949, 1953, 1957
*Elset, elset=FLANGE1_LAYER2-1
    2,    6,   10,   14,   18,   22,   26,   30,   34,   38,   42,   46,   50,   54,   58,   62
   66,   70,   74,   78,   82,   86,  210,  214,  218,  222,  226,  230,  234,  238,  242,  246
  250,  254,  258,  262,  266,  270,  274,  278,  282,  286,  290,  294,  418,  422,  426,  430
  434,  438,  442,  446,  450,  454,  458,  462,  466,  470,  474,  478,  482,  486,  490,  494
  498,  502,  626,  630,  634,  638,  642,  646,  650,  654,  658,  662,  666,  670,  674,  678
  682,  686,  690,  694,  698,  702,  706,  710,  834,  838,  842,  846,  850,  854,  858,  862
  866,  870,  874,  878,  882,  886,  890,  894,  898,  902,  906,  910,  914,  918, 1042, 1046
 1050, 1054, 1058, 1062, 1066, 1070, 1074, 1078, 1082, 1086, 1090, 1094, 1098, 1102, 1106, 1110
 1114, 1118, 1122, 1126, 1250, 1254, 1258, 1262, 1266, 1270, 1274, 1278, 1282, 1286, 1290, 1294
 1298, 1302, 1306, 1310, 1314, 1318, 1322, 1326, 1330, 1334, 1458, 1462, 1466, 1470, 1474, 1478
 1482, 1486, 1490, 1494, 1498, 1502, 1506, 1510, 1514, 1518, 1522, 1526, 1530, 1534, 1538, 1542
 1666, 1670, 1674, 1678, 1682, 1686, 1690, 1694, 1698, 1702, 1706, 1710, 1714, 1718, 1722, 1726
 1730, 1734, 1738, 1742, 1746, 1750, 1874, 1878, 1882, 1886, 1890, 1894, 1898, 1902, 1906, 1910
 1914, 1918, 1922, 1926, 1930, 1934, 1938, 1942, 1946, 1950, 1954, 1958
*Elset, elset=FLANGE1_LAYER3-1
    3,    7,   11,   15,   19,   23,   27,   31,   35,   39,   43,   47,   51,   55,   59,   63
   67,   71,   75,   79,   83,   87,  211,  215,  219,  223,  227,  231,  235,  239,  243,  247
  251,  255,  259,  263,  267,  271,  275,  279,  283,  287,  291,  295,  419,  423,  427,  431
  435,  439,  443,  447,  451,  455,  459,  463,  467,  471,  475,  479,  483,  487,  491,  495
  499,  503,  627,  631,  635,  639,  643,  647,  651,  655,  659,  663,  667,  671,  675,  679
  683,  687,  691,  695,  699,  703,  707,  711,  835,  839,  843,  847,  851,  855,  859,  863
  867,  871,  875,  879,  883,  887,  891,  895,  899,  903,  907,  911,  915,  919, 1043, 1047
 1051, 1055, 1059, 1063, 1067, 1071, 1075, 1079, 1083, 1087, 1091, 1095, 1099, 1103, 1107, 1111
 1115, 1119, 1123, 1127, 1251, 1255, 1259, 1263, 1267, 1271, 1275, 1279, 1283, 1287, 1291, 1295
 1299, 1303, 1307, 1311, 1315, 1319, 1323, 1327, 1331, 1335, 1459, 1463, 1467, 1471, 1475, 1479
 1483, 1487, 1491, 1495, 1499, 1503, 1507, 1511, 1515, 1519, 1523, 1527, 1531, 1535, 1539, 1543
 1667, 1671, 1675, 1679, 1683, 1687, 1691, 1695, 1699, 1703, 1707, 1711, 1715, 1719, 1723, 1727
 1731, 1735, 1739, 1743, 1747, 1751, 1875, 1879, 1883, 1887, 1891, 1895, 1899, 1903, 1907, 1911
 1915, 1919, 1923, 1927, 1931, 1935, 1939, 1943, 1947, 1951, 1955, 1959
*Elset, elset=FLANGE1_LAYER4-1
    4,    8,   12,   16,   20,   24,   28,   32,   36,   40,   44,   48,   52,   56,   60,   64
   68,   72,   76,   80,   84,   88,  212,  216,  220,  224,  228,  232,  236,  240,  244,  248
  252,  256,  260,  264,  268,  272,  276,  280,  284,  288,  292,  296,  420,  424,  428,  432
  436,  440,  444,  448,  452,  456,  460,  464,  468,  472,  476,  480,  484,  488,  492,  496
  500,  504,  628,  632,  636,  640,  644,  648,  652,  656,  660,  664,  668,  672,  676,  680
  684,  688,  692,  696,  700,  704,  708,  712,  836,  840,  844,  848,  852,  856,  860,  864
  868,  872,  876,  880,  884,  888,  892,  896,  900,  904,  908,  912,  916,  920, 1044, 1048
 1052, 1056, 1060, 1064, 1068, 1072, 1076, 1080, 1084, 1088, 1092, 1096, 1100, 1104, 1108, 1112
 1116, 1120, 1124, 1128, 1252, 1256, 1260, 1264, 1268, 1272, 1276, 1280, 1284, 1288, 1292, 1296
 1300, 1304, 1308, 1312, 1316, 1320, 1324, 1328, 1332, 1336, 1460, 1464, 1468, 1472, 1476, 1480
 1484, 1488, 1492, 1496, 1500, 1504, 1508, 1512, 1516, 1520, 1524, 1528, 1532, 1536, 1540, 1544
 1668, 1672, 1676, 1680, 1684, 1688, 1692, 1696, 1700, 1704, 1708, 1712, 1716, 1720, 1724, 1728
 1732, 1736, 1740, 1744, 1748, 1752, 1876, 1880, 1884, 1888, 1892, 1896, 1900, 1904, 1908, 1912
 1916, 1920, 1924, 1928, 1932, 1936, 1940, 1944, 1948, 1952, 1956, 1960
*Elset, elset=FLANGE1
FLANGE1_LAYER1-1,FLANGE1_LAYER2-1,FLANGE1_LAYER3-1,FLANGE1_LAYER4-1
**----------------------------------------------- 
*Elset, elset=FLANGE2_LAYER1-1
  121,  125,  129,  133,  137,  141,  145,  149,  153,  157,  161,  165,  169,  173,  177,  181
  185,  189,  193,  197,  201,  205,  329,  333,  337,  341,  345,  349,  353,  357,  361,  365
  369,  373,  377,  381,  385,  389,  393,  397,  401,  405,  409,  413,  537,  541,  545,  549
  553,  557,  561,  565,  569,  573,  577,  581,  585,  589,  593,  597,  601,  605,  609,  613
  617,  621,  745,  749,  753,  757,  761,  765,  769,  773,  777,  781,  785,  789,  793,  797
  801,  805,  809,  813,  817,  821,  825,  829,  953,  957,  961,  965,  969,  973,  977,  981
  985,  989,  993,  997, 1001, 1005, 1009, 1013, 1017, 1021, 1025, 1029, 1033, 1037, 1161, 1165
 1169, 1173, 1177, 1181, 1185, 1189, 1193, 1197, 1201, 1205, 1209, 1213, 1217, 1221, 1225, 1229
 1233, 1237, 1241, 1245, 1369, 1373, 1377, 1381, 1385, 1389, 1393, 1397, 1401, 1405, 1409, 1413
 1417, 1421, 1425, 1429, 1433, 1437, 1441, 1445, 1449, 1453, 1577, 1581, 1585, 1589, 1593, 1597
 1601, 1605, 1609, 1613, 1617, 1621, 1625, 1629, 1633, 1637, 1641, 1645, 1649, 1653, 1657, 1661
 1785, 1789, 1793, 1797, 1801, 1805, 1809, 1813, 1817, 1821, 1825, 1829, 1833, 1837, 1841, 1845
 1849, 1853, 1857, 1861, 1865, 1869, 1993, 1997, 2001, 2005, 2009, 2013, 2017, 2021, 2025, 2029
 2033, 2037, 2041, 2045, 2049, 2053, 2057, 2061, 2065, 2069, 2073, 2077
*Elset, elset=FLANGE2_LAYER2-1
  122,  126,  130,  134,  138,  142,  146,  150,  154,  158,  162,  166,  170,  174,  178,  182
  186,  190,  194,  198,  202,  206,  330,  334,  338,  342,  346,  350,  354,  358,  362,  366
  370,  374,  378,  382,  386,  390,  394,  398,  402,  406,  410,  414,  538,  542,  546,  550
  554,  558,  562,  566,  570,  574,  578,  582,  586,  590,  594,  598,  602,  606,  610,  614
  618,  622,  746,  750,  754,  758,  762,  766,  770,  774,  778,  782,  786,  790,  794,  798
  802,  806,  810,  814,  818,  822,  826,  830,  954,  958,  962,  966,  970,  974,  978,  982
  986,  990,  994,  998, 1002, 1006, 1010, 1014, 1018, 1022, 1026, 1030, 1034, 1038, 1162, 1166
 1170, 1174, 1178, 1182, 1186, 1190, 1194, 1198, 1202, 1206, 1210, 1214, 1218, 1222, 1226, 1230
 1234, 1238, 1242, 1246, 1370, 1374, 1378, 1382, 1386, 1390, 1394, 1398, 1402, 1406, 1410, 1414
 1418, 1422, 1426, 1430, 1434, 1438, 1442, 1446, 1450, 1454, 1578, 1582, 1586, 1590, 1594, 1598
 1602, 1606, 1610, 1614, 1618, 1622, 1626, 1630, 1634, 1638, 1642, 1646, 1650, 1654, 1658, 1662
 1786, 1790, 1794, 1798, 1802, 1806, 1810, 1814, 1818, 1822, 1826, 1830, 1834, 1838, 1842, 1846
 1850, 1854, 1858, 1862, 1866, 1870, 1994, 1998, 2002, 2006, 2010, 2014, 2018, 2022, 2026, 2030
 2034, 2038, 2042, 2046, 2050, 2054, 2058, 2062, 2066, 2070, 2074, 2078
*Elset, elset=FLANGE2_LAYER3-1
  123,  127,  131,  135,  139,  143,  147,  151,  155,  159,  163,  167,  171,  175,  179,  183
  187,  191,  195,  199,  203,  207,  331,  335,  339,  343,  347,  351,  355,  359,  363,  367
  371,  375,  379,  383,  387,  391,  395,  399,  403,  407,  411,  415,  539,  543,  547,  551
  555,  559,  563,  567,  571,  575,  579,  583,  587,  591,  595,  599,  603,  607,  611,  615
  619,  623,  747,  751,  755,  759,  763,  767,  771,  775,  779,  783,  787,  791,  795,  799
  803,  807,  811,  815,  819,  823,  827,  831,  955,  959,  963,  967,  971,  975,  979,  983
  987,  991,  995,  999, 1003, 1007, 1011, 1015, 1019, 1023, 1027, 1031, 1035, 1039, 1163, 1167
 1171, 1175, 1179, 1183, 1187, 1191, 1195, 1199, 1203, 1207, 1211, 1215, 1219, 1223, 1227, 1231
 1235, 1239, 1243, 1247, 1371, 1375, 1379, 1383, 1387, 1391, 1395, 1399, 1403, 1407, 1411, 1415
 1419, 1423, 1427, 1431, 1435, 1439, 1443, 1447, 1451, 1455, 1579, 1583, 1587, 1591, 1595, 1599
 1603, 1607, 1611, 1615, 1619, 1623, 1627, 1631, 1635, 1639, 1643, 1647, 1651, 1655, 1659, 1663
 1787, 1791, 1795, 1799, 1803, 1807, 1811, 1815, 1819, 1823, 1827, 1831, 1835, 1839, 1843, 1847
 1851, 1855, 1859, 1863, 1867, 1871, 1995, 1999, 2003, 2007, 2011, 2015, 2019, 2023, 2027, 2031
 2035, 2039, 2043, 2047, 2051, 2055, 2059, 2063, 2067, 2071, 2075, 2079
*Elset, elset=FLANGE2_LAYER4-1
  124,  128,  132,  136,  140,  144,  148,  152,  156,  160,  164,  168,  172,  176,  180,  184
  188,  192,  196,  200,  204,  208,  332,  336,  340,  344,  348,  352,  356,  360,  364,  368
  372,  376,  380,  384,  388,  392,  396,  400,  404,  408,  412,  416,  540,  544,  548,  552
  556,  560,  564,  568,  572,  576,  580,  584,  588,  592,  596,  600,  604,  608,  612,  616
  620,  624,  748,  752,  756,  760,  764,  768,  772,  776,  780,  784,  788,  792,  796,  800
  804,  808,  812,  816,  820,  824,  828,  832,  956,  960,  964,  968,  972,  976,  980,  984
  988,  992,  996, 1000, 1004, 1008, 1012, 1016, 1020, 1024, 1028, 1032, 1036, 1040, 1164, 1168
 1172, 1176, 1180, 1184, 1188, 1192, 1196, 1200, 1204, 1208, 1212, 1216, 1220, 1224, 1228, 1232
 1236, 1240, 1244, 1248, 1372, 1376, 1380, 1384, 1388, 1392, 1396, 1400, 1404, 1408, 1412, 1416
 1420, 1424, 1428, 1432, 1436, 1440, 1444, 1448, 1452, 1456, 1580, 1584, 1588, 1592, 1596, 1600
 1604, 1608, 1612, 1616, 1620, 1624, 1628, 1632, 1636, 1640, 1644, 1648, 1652, 1656, 1660, 1664
 1788, 1792, 1796, 1800, 1804, 1808, 1812, 1816, 1820, 1824, 1828, 1832, 1836, 1840, 1844, 1848
 1852, 1856, 1860, 1864, 1868, 1872, 1996, 2000, 2004, 2008, 2012, 2016, 2020, 2024, 2028, 2032
 2036, 2040, 2044, 2048, 2052, 2056, 2060, 2064, 2068, 2072, 2076, 2080
*Elset, elset=FLANGE2
FLANGE2_LAYER1-1,FLANGE2_LAYER2-1,FLANGE2_LAYER3-1,FLANGE2_LAYER4-1
**-----------------------------------------------
*Elset, elset=FLANGE1_LAYER1-1
    1,    5,    9,   13,   17,   21,   25,   29,   33,   37,   41,   45,   49,   53,   57,   61
   65,   69,   73,   77,   81,   85,  209,  213,  217,  221,  225,  229,  233,  237,  241,  245
  249,  253,  257,  261,  265,  269,  273,  277,  281,  285,  289,  293,  417,  421,  425,  429
  433,  437,  441,  445,  449,  453,  457,  461,  465,  469,  473,  477,  481,  485,  489,  493
  497,  501,  625,  629,  633,  637,  641,  645,  649,  653,  657,  661,  665,  669,  673,  677
  681,  685,  689,  693,  697,  701,  705,  709,  833,  837,  841,  845,  849,  853,  857,  861
  865,  869,  873,  877,  881,  885,  889,  893,  897,  901,  905,  909,  913,  917, 1041, 1045
 1049, 1053, 1057, 1061, 1065, 1069, 1073, 1077, 1081, 1085, 1089, 1093, 1097, 1101, 1105, 1109
 1113, 1117, 1121, 1125, 1249, 1253, 1257, 1261, 1265, 1269, 1273, 1277, 1281, 1285, 1289, 1293
 1297, 1301, 1305, 1309, 1313, 1317, 1321, 1325, 1329, 1333, 1457, 1461, 1465, 1469, 1473, 1477
 1481, 1485, 1489, 1493, 1497, 1501, 1505, 1509, 1513, 1517, 1521, 1525, 1529, 1533, 1537, 1541
 1665, 1669, 1673, 1677, 1681, 1685, 1689, 1693, 1697, 1701, 1705, 1709, 1713, 1717, 1721, 1725
 1729, 1733, 1737, 1741, 1745, 1749, 1873, 1877, 1881, 1885, 1889, 1893, 1897, 1901, 1905, 1909
 1913, 1917, 1921, 1925, 1929, 1933, 1937, 1941, 1945, 1949, 1953, 1957
**----------------------------------------------- 
*Elset, elset=FLANGE2_LAYER1-1
  121,  125,  129,  133,  137,  141,  145,  149,  153,  157,  161,  165,  169,  173,  177,  181
  185,  189,  193,  197,  201,  205,  329,  333,  337,  341,  345,  349,  353,  357,  361,  365
  369,  373,  377,  381,  385,  389,  393,  397,  401,  405,  409,  413,  537,  541,  545,  549
  553,  557,  561,  565,  569,  573,  577,  581,  585,  589,  593,  597,  601,  605,  609,  613
  617,  621,  745,  749,  753,  757,  761,  765,  769,  773,  777,  781,  785,  789,  793,  797
  801,  805,  809,  813,  817,  821,  825,  829,  953,  957,  961,  965,  969,  973,  977,  981
  985,  989,  993,  997, 1001, 1005, 1009, 1013, 1017, 1021, 1025, 1029, 1033, 1037, 1161, 1165
 1169, 1173, 1177, 1181, 1185, 1189, 1193, 1197, 1201, 1205, 1209, 1213, 1217, 1221, 1225, 1229
 1233, 1237, 1241, 1245, 1369, 1373, 1377, 1381, 1385, 1389, 1393, 1397, 1401, 1405, 1409, 1413
 1417, 1421, 1425, 1429, 1433, 1437, 1441, 1445, 1449, 1453, 1577, 1581, 1585, 1589, 1593, 1597
 1601, 1605, 1609, 1613, 1617, 1621, 1625, 1629, 1633, 1637, 1641, 1645, 1649, 1653, 1657, 1661
 1785, 1789, 1793, 1797, 1801, 1805, 1809, 1813, 1817, 1821, 1825, 1829, 1833, 1837, 1841, 1845
 1849, 1853, 1857, 1861, 1865, 1869, 1993, 1997, 2001, 2005, 2009, 2013, 2017, 2021, 2025, 2029
 2033, 2037, 2041, 2045, 2049, 2053, 2057, 2061, 2065, 2069, 2073, 2077
*Elset, elset=CORNER_LAYER1 
89,	93,	97,	101,	105,	109,	113,	117
297,	301,	305,	309,	313,	317,	321,	325
505,	509,	513,	517,	521,	525,	529,	533
713,	717,	721,	725,	729,	733,	737,	741
921,	925,	929,	933,	937,	941,	945,	949
1129,	1133,	1137,	1141,	1145,	1149,	1153,	1157
1337,	1341,	1345,	1349,	1353,	1357,	1361,	1365
1545,	1549,	1553,	1557,	1561,	1565,	1569,	1573
1753,	1757,	1761,	1765,	1769,	1773,	1777,	1781
1961,	1965,	1969,	1973,	1977,	1981,	1985,	1989
*Elset, elset=PARTINTERFACE
FLANGE1_LAYER1-1, FLANGE2_LAYER1-1, CORNER_LAYER1 
**
**-------- INTERACTIONS
**----------------------------------
*Elset, elset=Surf-7_S1
2358,2363,2368,2373,2374,2375,2376,2377,2392,2397,2402,2407,2412,2417,2422,2427
2432,2437,2442,2720,2725,2730,2735,2736,2737,2738,2739,2754,2759,2764,2769,2774
2779,2784,2789,2794,2799,2804,3082,3087,3092,3097,3098,3099,3100,3101,3116,3121
3126,3131,3136,3141,3146,3151,3156,3161,3166,3444,3449,3454,3459,3460,3461,3462
3463,3478,3483,3488,3493,3498,3503,3508,3513,3518,3523,3528,3806,3811,3816,3821
3822,3823,3824,3825,3840,3845,3850,3855,3860,3865,3870,3875,3880,3885,3890,4168
4173,4178,4183,4184,4185,4186,4187,4202,4207,4212,4217,4222,4227,4232,4237,4242
4247,4252,4530,4535,4540,4545,4546,4547,4548,4549,4564,4569,4574,4579,4584,4589
4594,4599,4604,4609,4614,4892,4897,4902,4907,4908,4909,4910,4911,4926,4931,4936
4941,4946,4951,4956,4961,4966,4971,4976,5254,5259,5264,5269,5270,5271,5272,5273
5288,5293,5298,5303,5308,5313,5318,5323,5328,5333,5338,5616,5621,5626,5631,5632
5633,5634,5635,5650,5655,5660,5665,5670,5675,5680,5685,5690,5695,5700,5978,5983
5988,5993,5994,5995,5996,5997,6012,6017,6022,6027,6032,6037,6042,6047,6052,6057
6062,6340,6345,6350,6355,6356,6357,6358,6359,6374,6379,6384,6389,6394,6399,6404
6409,6414,6419,6424
*Elset, elset=Surf-7_S2
2303,2308,2313,2318,2323,2328,2333,2338,2343,2348,2353,2665,2670,2675,2680,2685
2690,2695,2700,2705,2710,2715,3027,3032,3037,3042,3047,3052,3057,3062,3067,3072
3077,3389,3394,3399,3404,3409,3414,3419,3424,3429,3434,3439,3751,3756,3761,3766
3771,3776,3781,3786,3791,3796,3801,4113,4118,4123,4128,4133,4138,4143,4148,4153
4158,4163,4475,4480,4485,4490,4495,4500,4505,4510,4515,4520,4525,4837,4842,4847
4852,4857,4862,4867,4872,4877,4882,4887,5199,5204,5209,5214,5219,5224,5229,5234
5239,5244,5249,5561,5566,5571,5576,5581,5586,5591,5596,5601,5606,5611,5923,5928
5933,5938,5943,5948,5953,5958,5963,5968,5973,6285,6290,6295,6300,6305,6310,6315
6320,6325,6330,6335
*Surface, type=ELEMENT, name=TOOL_OUTER
Surf-7_S1, S1
Surf-7_S2, S2
**-------------------
*Elset, elset=PART_INNER_S1, generate
    1,  2077,     4
*Surface, type=ELEMENT, name=PART_INNER
PART_INNER_S1, S1
**-----------------------------------------------
** INTERACTIONS
** 
** Interaction: PART_TOOL
*Contact Pair, interaction=SI1, type=SURFACE TO SURFACE,ADJUST=0.0002 
PART_INNER, TOOL_OUTER
**----------------------------------------------------------------
*SURFACE INTERACTION,NAME=SI1
*SURFACE BEHAVIOR, PRESSURE-OVERCLOSURE=LINEAR
1.E7,3.
**-----------------------------------------------
**FRICTION
**0.15, 1000
**-----------------------------------------------
**
*Amplitude, name=PRESSURE_CYCLE
          0.,           0.,        1800.,      700000.,        4500.,      700000.,        8100.,      700000.
      10200.,      700000.,       17400.,      700000.,     20142.86,      700000.,     21942.86,      700000.
    23742.86,           0.
*Amplitude, name=TEMPERATURE_CYCLE
          0.,          20.,        1800.,          20.,        4500.,         110.,        8100.,         110.
      10200.,         180.,       17400.,         180.,     20142.86,          20.,     21942.86,          20.
    23742.86,          20.
** 
** MATERIALS
** 
**
*******************************************
*Material, name=SoftMaterial
*Density
 2710,
*Expansion, type=ORTHO
0.,         0., 7.5467e-05
*Elastic
 6.900E+6, 0.327
*******************************************
*******************************************
*Material, name=SoftMaterialCSYS
*Density
 2710,
*Expansion, type=ORTHO
7.5467e-05,	0.,         0. 
*Elastic
 6.900E+6, 0.327
*******************************************
*Material, name=TOOLING-Aluminum
*Density
 2710,
*Expansion
 2.360E-05,
*Elastic
 6.900E+10, 0.327
*******************************************
*******************************************
** BOUNDARY CONDITIONS
** 
*Boundary
X-SYMM, 1, 1
*Boundary
Y-SYMM, 2, 2
*Boundary
Z-SYMM, 3, 3
*Boundary
X-SYMM-PART, 1, 1
*Boundary
Y-SYMM-PART, 2, 2
*Boundary
Z-SYMM-PART, 3, 3
*******************************************
** 
** 
*Orientation, name=Ori-1
          1.,           0.,           1.,           0.,           1.,           0.
*Orientation, name=Ori-2
          1.,           0.,           -1.,           0.,           1.,           0.
*Orientation, name=Ori-CSYS, system=CYLINDRICAL
		 0.0,  0.0,  0.044426, 0.0,  1.0,  0.0444260
*Solid Section, elset=ALL-ELEMENTS-TOOL, orientation=Ori-1, material=TOOLING-Aluminum
**
*Solid Section, elset=FLANGE1, orientation=Ori-1, material=SoftMaterial
*Solid Section, elset=FLANGE2, orientation=Ori-2, material=SoftMaterial
*Solid Section, elset=CORNER_ELEMENTS_PART, orientation=Ori-CSYS, material=SoftMaterialCSYS
**
**
*******************************************
** PREDEFINED FIELDS
** 
** Name: Initial-Temperature   Type: Temperature
*Initial Conditions, type=TEMPERATURE
ALL-NODES-TOOL, 160.0
ALL-NODES-PART, 160.0
**
**
*******************************************
** STEP: Step-1
** 
*STEP
*STATIC,DIRECT
0.01,1.
**50., 23742.9, 1., 500., 
**0.01, 1., 1e-05, 0.1
** 
*TEMPERATURE
ALL-NODES-TOOL, 0.0
ALL-NODES-PART, 0.0
**
** 
**------------------------------------
** OUTPUT REQUESTS
** 
**------------------------------------
*NODE OUTPUT,FREQUENCY=1
U,NT
*NODE PRINT,NSET=ALL-NODES-TOOL
U,NT
*NODE PRINT,NSET=ALL-NODES-PART
U,NT
*NODE FILE, FREQUENCY=1
U
*EL FILE
S, E
*END STEP
**------------------------------------
**------------------------------------
