*Heading
*Node
      1,           0.,           0.,        26.25
      2,           0.,           0.,           0.
      3,        26.25,           0.,           0.
      4,           0.,           0.,       -26.25
      5,       -26.25,           0.,           0.
      6,           0.,   3.74999952,         -30.
      7,          30.,   3.74999952,           0.
      8,           0.,   3.74999952,          30.
      9,         -30.,   3.74999952,           0.
     10,           0.,       101.25,         -30.
     11,          30.,       101.25,           0.
     12,           0.,       101.25,          30.
     13,         -30.,       101.25,           0.
     14,           0.,         105.,       -26.25
     15,        26.25,         105.,           0.
     16,           0.,         105.,        26.25
     17,       -26.25,         105.,           0.
     18,           0.,         105.,        -22.5
     19,         22.5,         105.,           0.
     20,           0.,         105.,         22.5
** ... 7809 like lines cut
*Element, type=S4R
  1, 1060, 1109, 1038, 1098
  2, 1071, 1041, 1039, 1073
  3, 1026,   66,   67, 1030
  4, 1037,   48,   49, 1032
  5,   42, 1043, 1042,   41
  6, 1018,   59,   60, 1017
  7, 1023, 1053, 1061, 1020
  8, 1022,   69,   70, 1060
  9, 1074, 1111, 1093, 1075
 10,   39,   40, 1039, 1041
 11,   48, 1037, 1033,   47
 12, 1050, 1077, 1079, 1052
 13, 1032,   49,   50, 1031
 14, 1068, 1065, 1037, 1032
 15,   44, 1035,   43,    2
 16,   53,    3,   54, 1021
 17, 1020,   55,   56, 1023
 18, 1103, 1112, 1096, 1107
 19, 1017,   60,   61, 1027
 20, 1029, 1028, 1049, 1056
** ... 7807 like lines cut
*Nset, nset=Bottle-Shell-Small-3X-1_Set-2, generate
    1,  7829,     1
*Elset, elset=Bottle-Shell-Small-3X-1_Set-2, generate
    1,  7827,     1
*Nset, nset=Bottle-Shell-Small-3X-1_Set-3, generate
    1,  7829,     1
*Elset, elset=Bottle-Shell-Small-3X-1_Set-3, generate
    1,  7827,     1
*Nset, nset=Bottle-Shell-Small-3X-1_Set-4, generate
    1,  7829,     1
*Elset, elset=Bottle-Shell-Small-3X-1_Set-4, generate
    1,  7827,     1
** Section: HDPE_Shell
*Shell Section, elset=Bottle-Shell-Small-3X-1_Set-4, material=HDPE_generic, offset=0.5
1.0, 5
** ----------------------------------------------------------------
** 
** PART INSTANCE: Part 8 - Rigid-3X-1
** 
*Node, nset=rigid_8
7830, 57.0, 180.15, 629.099997
7831, -39.0, 180.15, 629.099997
7832, -39.0, 180.15, 622.799994
7833, 57.0, 180.15, 622.799994
7834, -39.0, 180.15, 652.500006
7835, 57.0, 180.15, 652.500006
7836, 57.0, 180.15, 659.4
7837, -39.0, 180.15, 659.4
7838, -39.0, 180.15, 634.500006
7839, 57.0, 180.15, 634.500006
7840, 57.0, 180.15, 647.099997
7841, -39.0, 180.15, 647.099997
7842, -39.0, 196.8000001, 622.799994
7843, 57.0, 196.8000001, 622.799994
7844, 42.0, 178.65, 665.100012
7845, 39.5999985, 176.2500004, 662.699988
7846, 60.0, 176.2500004, 662.699988
7847, 43.5, 178.65, 665.100012
7848, 58.5, 178.65, 665.100012
7849, 60.0, 178.65, 665.100012
** ... 10858 like lines cut
*Node, nset=rigid_8
18708, 12.22, 202.65, 662.699988
18708, 12.22, 202.65, 662.699988
29588, 12.22, 202.65, 662.699988
*Nset, nset=right_grip_ref_node
18708, 
*Nset, nset=right_grip_rot_node
29588
** ----------------------------------------------------------------
** 
** PART INSTANCE: Part 13 - Rigid-3X-1
** 
*Node, nset=rigid_13
18709, -57.0, 225.15, 629.099997
18710, 39.0, 225.15, 629.099997
18711, 39.0, 225.15, 622.799994
18712, -57.0, 225.15, 622.799994
18713, 39.0, 225.15, 652.500006
18714, -57.0, 225.15, 652.500006
18715, -57.0, 225.15, 659.4
18716, 39.0, 225.15, 659.4
18717, 39.0, 225.15, 634.500006
18718, -57.0, 225.15, 634.500006
18719, -57.0, 225.15, 647.099997
18720, 39.0, 225.15, 647.099997
18721, 39.0, 208.4999999, 622.799994
18722, -57.0, 208.4999999, 622.799994
18723, -42.0, 226.65, 665.100012
18724, -39.5999985, 229.0499996, 662.699988
18725, -60.0, 229.0499996, 662.699988
18726, -43.5, 226.65, 665.100012
18727, -58.5, 226.65, 665.100012
18728, -60.0, 226.65, 665.100012
** ... 10858 like lines cut
*Node, nset=rigid_13
29587, -12.22, 202.65, 662.699988 
29587, -12.22, 202.65, 662.699988
29589, -12.22, 202.65, 662.699988
*Nset, nset=left_grip_ref_node
29587, 
*Nset, nset=left_grip_rot_node
29589,
*Rigid Body, nset=rigid_13, ref node=left_grip_ref_node, rot node=left_grip_rot_node
*Rigid Body, nset=rigid_8, ref node=right_grip_ref_node, rot node=right_grip_rot_node
*Nset, nset=b_Set-8, generate
  7830,  18707,      1
*Nset, nset=b_Set-8, generate
 18709,  29586,      1
*Nset, nset=bottle, generate
    1,  7829,     1
*Elset, elset=bottle, generate
    1,  7827,     1
*Nset, nset=bottle_bottom
    1,    2,    3,    4,    5,   35,   36,   37,   38,   39,   40,   41,   42,   43,   44,   45
   46,   47,   48,   49,   50,   51,   52,   53,   54,   55,   56,   57,   58,   59,   60,   61
   62,   63,   64,   65,   66,   67,   68,   69,   70,   71,   72,   73,   74,   75,   76,   77
   78,   79,   80,   81,   82,   83,   84,   85,   86,   87,   88,   89,   90,   91,   92,   93
   94,   95,   96,   97,   98,   99,  100,  101,  102,  103,  104,  105,  106,  107,  108,  109
  110,  111,  112,  113,  114,  115,  116,  117,  118,  119,  120,  121,  122,  123,  124,  125
  126,  127,  128,  194,  195,  196,  197,  198,  199,  200,  201,  202,  203,  204,  205,  206
  207,  208,  209,  210, 1015, 1016, 1017, 1018, 1019, 1020, 1021, 1022, 1023, 1024, 1025, 1026
 1027, 1028, 1029, 1030, 1031, 1032, 1033, 1034, 1035, 1036, 1037, 1038, 1039, 1040, 1041, 1042
 1043, 1044, 1045, 1046, 1047, 1048, 1049, 1050, 1051, 1052, 1053, 1054, 1055, 1056, 1057, 1058
 1059, 1060, 1061, 1062, 1063, 1064, 1065, 1066, 1067, 1068, 1069, 1070, 1071, 1072, 1073, 1074
 1075, 1076, 1077, 1078, 1079, 1080, 1081, 1082, 1083, 1084, 1085, 1086, 1087, 1088, 1089, 1090
 1091, 1092, 1093, 1094, 1095, 1096, 1097, 1098, 1099, 1100, 1101, 1102, 1103, 1104, 1105, 1106
 1107, 1108, 1109, 1110, 1111, 1112, 1113, 1114, 1115, 1116, 1117, 1118, 1119, 1120, 1121, 1122
 1123, 1124, 1125, 1126, 1127, 1128, 1129, 1130, 1131, 1132, 1133, 1134, 1135, 1136, 1137, 1138
 1139, 1140, 1141, 1142, 1143, 1144, 1145, 1146, 1147, 1148, 1149, 1150, 1151, 1152, 1153, 1154
 1155, 1156, 1157, 1158, 1159, 1160, 1161, 1162, 1163, 1164, 1165, 1166, 1167, 1168, 1169, 1170
 1171, 1172, 1173, 1174, 1175, 1176, 1177, 1178, 1179, 1180, 1181, 1182, 1183, 1184, 1185, 1186
 1187, 1188, 1189, 1190, 1191, 1192, 1193, 1194, 1195, 1196, 1197, 1198, 1199, 1200, 1201, 1202
 1203, 1204, 1205, 1206, 1207, 1208, 1209, 1210, 1211, 1212, 1213, 1214, 1215, 1216, 1217, 1218
** ... 14 like lines cut
*Elset, elset=bottle_bottom
    1,    2,    3,    4,    5,    6,    7,    8,    9,   10,   11,   12,   13,   14,   15,   16
   17,   18,   19,   20,   21,   22,   23,   24,   25,   26,   27,   28,   29,   30,   31,   32
   33,   34,   35,   36,   37,   38,   39,   40,   41,   42,   43,   44,   45,   46,   47,   48
   49,   50,   51,   52,   53,   54,   55,   56,   57,   58,   59,   60,   61,   62,   63,   64
   65,   66,   67,   68,   69,   70,   71,   72,   73,   74,   75,   76,   77,   78,   79,   80
   81,   82,   83,   84,   85,   86,   87,   88,   89,   90,   91,   92,   93,   94,   95,   96
   97,   98,   99,  100,  101,  102,  103,  104,  105,  106,  107,  108,  109,  110,  111,  112
  113,  114,  115,  116,  117,  118,  119,  120,  121,  122,  123,  124,  125,  126,  127,  128
  129,  130,  131,  132,  133,  134,  135,  136,  137,  138,  139,  140,  141,  142,  143,  144
  145,  146,  147,  148,  149,  150,  151,  152,  153,  154,  155,  156,  157,  158,  159,  160
  161,  162,  163,  164,  165,  166,  167,  168,  169,  170,  171,  172,  173,  174,  175,  176
  177,  178,  179,  180,  181,  182,  183,  184,  185,  186,  187,  188,  189,  190,  191,  192
  193,  194,  195,  196,  197,  198,  199,  200,  201,  202,  203,  204,  205,  206,  207,  208
  209,  210,  211,  212,  213,  214,  215,  216,  217,  218,  219,  220,  221,  222,  223,  224
  225,  226,  227,  228,  229,  230,  231,  232,  233,  234,  235,  236,  237,  238,  239,  240
  241,  242,  243,  244,  245,  246,  247,  248,  249,  250,  251,  252,  253,  254,  255,  256
  257,  258,  259,  260,  261,  262,  263,  264,  265,  266,  267,  268,  269,  270,  271,  272
  273,  274,  275,  276,  277,  278,  279,  280,  281,  282,  283,  284,  285,  286,  287,  288
  289,  290,  291,  292,  293,  294,  295,  296,  297,  298,  299,  300,  301,  302,  303,  304
  305,  306,  307,  308,  309,  310,  311,  312,  313,  314,  315,  316,  317,  318,  319,  320
** ... 11 like lines cut
*Nset, nset=grips
left_grip_ref_node 
*Nset, nset=grips
right_grip_ref_node
*Nset, nset=left-grip
 29587,
*Nset, nset=left_grip_geometry, generate
 18709,  29587,      1
*Nset, nset=right-grip
 18708,
*Nset, nset=right_grip_geometry, generate
  7830,  18708,      1
*Elset, elset=_Bottle_surface_SPOS, generate
    1,  7827,     1
*Surface, type=NODE, name=Bottle_surface
Bottle-Shell-Small-3X-1_Set-2
*Surface, type=NODE, name=Left-grip
rigid_8
*Surface, type=NODE, name=Right-grip
rigid_13
*Surface, type=NODE, name=bottle_bottom
bottle_bottom
***Amplitude, name=shake_1_sinusoid, definition=PERIODIC
**1,           62.83,              0.,              0.
**             0.,              1.
***Amplitude, name=shake_2_sinusoids, definition=PERIODIC
**2,           62.83,              0.,              0.
**             0.,              1.,              0.,              1.
***Amplitude, name=vel_smooth_step, definition=SMOOTH STEP
**             0.,              0.,             0.1,              1.,             0.9,              1.,              1.,              0.
*Material, name=HDPE_generic
*Density
 1.94e-08
*Elastic
1000., 0.45
*Plastic
  8.618,    0.
 13.064, 0.007
 16.787, 0.025
 18.476, 0.044
 20.337, 0.081
 24.543,  0.28
 26.887,  0.59
** 
** INTERACTION PROPERTIES
** 
*Surface Interaction, name=exp_fric
*Friction
0.5, 5000
*Surface Behavior, pressure-overclosure=EXPONENTIAL
0.001, 1.
** 
** BOUNDARY CONDITIONS
** 
** Name: bottle_fixed Type: Displacement/Rotation
*Boundary
bottle_bottom, 1, 3, 0
** Name: left_grip_squeeze Type: Displacement/Rotation
*Boundary
left_grip_ref_node, 1, 3, 0
left_grip_rot_node, 1, 3, 0
** Name: right_grip_squeeze Type: Displacement/Rotation
right_grip_ref_node, 1, 3, 0
right_grip_rot_node, 1, 3, 0
*Boundary
** 
** INTERACTIONS
** 
** Interaction: left_grip_to_bottle
*Contact Pair, interaction=exp_fric, type=SURFACE TO SURFACE
Bottle_surface, Left-grip
** Interaction: right_grip_to_bottle
*Contact Pair, interaction=exp_fric, type=SURFACE TO SURFACE
Bottle_surface, Right-grip
** ----------------------------------------------------------------
** 
** STEP: gripper_translate
** 
*Step, nlgeom=YES, inc=1000
translate gripper to bottle
*Static
0.1, 1., 1e-05, 1.
** 
** BOUNDARY CONDITIONS
** 
** Name: grips_translate_squeeze Type: Displacement/Rotation
*Boundary
grips, 2, 2, -150.
grips, 3, 3, -99.
** 
** LOADS
** 
** Name: gravitational_load   Type: Gravity
*Dload
bottle, GRAV, 9810., 0., -1., 0.
** 
** OUTPUT REQUESTS
** 
*Restart, write, frequency=0
** 
** FIELD OUTPUT: F-Output-1
** 
*Output
*Node File
U, V
*Contact File, nset=bottle
CDIS, CSTR, PCON
** 
** HISTORY OUTPUT: H-Output-1
** 
***Node Output, nset=grips
**U1, U2, U3, UR1, UR2, UR3, V1, V2
**V3, VR1, VR2, VR3
*End Step
