**
**   Structure: cube.
**   Test objective: mixture of equations with 2 and 9 terms.

*NODE
   1,   12.1499996,    2.9000001,   1.04999995
      2,   12.1499996,    2.6583333,   1.04999995
      3,   12.1499996,   2.41666675,   1.04999995
      4,   12.1499996,   2.17499995,   1.04999995
      5,   12.1499996,   1.93333328,   1.04999995
      6,   12.1499996,   1.69166672,   1.04999995
      7,   12.1499996,   1.45000005,   1.04999995
      8,   12.1499996,   1.20833337,   1.04999995
      9,   12.1499996,  0.966666639,   1.04999995
     10,   12.1499996,  0.725000024,   1.04999995
     11,   12.1499996,  0.483333319,   1.04999995
     12,   12.1499996,   0.24166666,   1.04999995
     13,   12.1499996,           0.,   1.04999995
     14,   12.1499996,    2.9000001,  0.787500024
     15,   12.1499996,    2.6583333,  0.787500024
     16,   12.1499996,   2.41666675,  0.787500024
     17,   12.1499996,   2.17499995,  0.787500024
     18,   12.1499996,   1.93333328,  0.787500024
     19,   12.1499996,   1.69166672,  0.787500024
     20,   12.1499996,   1.45000005,  0.787500024
** ... 3100 like lines cut
*ELEMENT, TYPE=C3D8
  1,   66,   67,   80,   79,    1,    2,   15,   14
   2,   67,   68,   81,   80,    2,    3,   16,   15
   3,   68,   69,   82,   81,    3,    4,   17,   16
   4,   69,   70,   83,   82,    4,    5,   18,   17
   5,   70,   71,   84,   83,    5,    6,   19,   18
   6,   71,   72,   85,   84,    6,    7,   20,   19
   7,   72,   73,   86,   85,    7,    8,   21,   20
   8,   73,   74,   87,   86,    8,    9,   22,   21
   9,   74,   75,   88,   87,    9,   10,   23,   22
  10,   75,   76,   89,   88,   10,   11,   24,   23
  11,   76,   77,   90,   89,   11,   12,   25,   24
  12,   77,   78,   91,   90,   12,   13,   26,   25
  13,   79,   80,   93,   92,   14,   15,   28,   27
  14,   80,   81,   94,   93,   15,   16,   29,   28
  15,   81,   82,   95,   94,   16,   17,   30,   29
  16,   82,   83,   96,   95,   17,   18,   31,   30
  17,   83,   84,   97,   96,   18,   19,   32,   31
  18,   84,   85,   98,   97,   19,   20,   33,   32
  19,   85,   86,   99,   98,   20,   21,   34,   33
  20,   86,   87,  100,   99,   21,   22,   35,   34
** ... 2236 like lines cut
*NSET,NSET=NALL,GENERATE
 1,  3120   
*NSET,NSET=FIX,GENERATE
 3056,  3120
*NSET,NSET=Ntop,GENERATE
 1,  65
 *Nset, nset=FORCE 
 1,
**MATERIAL,NAME=ELASTIC_FIBER
*MATERIAL,NAME=ELASTIC
*ELASTIC
5,0.45
**USER MATERIAL,CONSTANTS=10
**0.0229719,0.,0.760803772,0.648981987,0.279109,129.69,0.520930316,-0.853598207,
**0.279109,   129.69
*ELSET,ELSET=EALL,GENERATE
 1,  2256  
*SOLID SECTION,ELSET=EALL,MATERIAL=ELASTIC
*STEP,NLGEOM
*STATIC
0.01, 1.,,0.1
*BOUNDARY
FIX,1
FIX,2
FIX,3
*BOUNDARY
Ntop,2
Ntop,3
**CLOAD
**FORCE,1,5.
*DLOAD
1, P2, -1.
2, P2, -1.
3, P2, -1.
4, P2, -1.
5, P2, -1.
6, P2, -1.
7, P2, -1.
8, P2, -1.
9, P2, -1.
10, P2, -1.
11, P2, -1.
12, P2, -1.
13, P2, -1.
14, P2, -1.
15, P2, -1.
16, P2, -1.
17, P2, -1.
18, P2, -1.
19, P2, -1.
20, P2, -1.
** ... 28 like lines cut
*NODE FILE,NSET=NALL
U
*EL FILE,ELSET=EALL
S,E
*NODE PRINT,NSET=FORCE
U
*END STEP

