*NODE, NSET=Nall
       1,1.000000000000e+01,-1.000000000000e+01,0.000000000000e+00
       2,5.000000000000e+00,-1.000000000000e+01,0.000000000000e+00
       3,5.000000000000e+00,-1.000000000000e+01,6.250000000000e+00
       4,1.000000000000e+01,-1.000000000000e+01,6.250000000000e+00
       5,1.000000000000e+01,-5.000000000000e+00,0.000000000000e+00
       6,5.000000000000e+00,-5.000000000000e+00,0.000000000000e+00
       7,5.000000000000e+00,-5.000000000000e+00,6.250000000000e+00
       8,1.000000000000e+01,-5.000000000000e+00,6.250000000000e+00
       9,7.500000000000e+00,-1.000000000000e+01,0.000000000000e+00
      10,5.000000000000e+00,-1.000000000000e+01,3.125000000000e+00
      11,7.500000000000e+00,-1.000000000000e+01,6.250000000000e+00
      12,1.000000000000e+01,-1.000000000000e+01,3.125000000000e+00
      13,1.000000000000e+01,-7.500000000000e+00,0.000000000000e+00
      14,5.000000000000e+00,-7.500000000000e+00,-2.842170943040e-14
      15,5.000000000000e+00,-7.500000000000e+00,6.250000000000e+00
      16,1.000000000000e+01,-7.500000000000e+00,6.250000000000e+00
      17,7.500000000000e+00,-5.000000000000e+00,0.000000000000e+00
      18,5.000000000000e+00,-5.000000000000e+00,3.125000000000e+00
      19,7.500000000000e+00,-5.000000000000e+00,6.250000000000e+00
      20,1.000000000000e+01,-5.000000000000e+00,3.125000000000e+00
** ... 2925 like lines cut
*ELEMENT, TYPE=C3D20R, ELSET=Eall
     1,     1,     2,     3,     4,     5,     6,     7,     8,     9,    10,
          11,    12,    17,    18,    19,    20,    13,    14,    15,    16
     2,     4,     3,    21,    22,     8,     7,    23,    24,    11,    25,
          26,    27,    19,    30,    31,    32,    16,    15,    28,    29
     3,    22,    21,    33,    34,    24,    23,    35,    36,    26,    37,
          38,    39,    31,    42,    43,    44,    29,    28,    40,    41
     4,    34,    33,    45,    46,    36,    35,    47,    48,    38,    49,
          50,    51,    43,    54,    55,    56,    41,    40,    52,    53
     5,    46,    45,    57,    58,    48,    47,    59,    60,    50,    61,
          62,    63,    55,    66,    67,    68,    53,    52,    64,    65
     6,    58,    57,    69,    70,    60,    59,    71,    72,    62,    73,
          74,    75,    67,    78,    79,    80,    65,    64,    76,    77
     7,    70,    69,    81,    82,    72,    71,    83,    84,    74,    85,
          86,    87,    79,    90,    91,    92,    77,    76,    88,    89
     8,    82,    81,    93,    94,    84,    83,    95,    96,    86,    97,
          98,    99,    91,   102,   103,   104,    89,    88,   100,   101
     9,    94,    93,   105,   106,    96,    95,   107,   108,    98,   109,
         110,   111,   103,   114,   115,   116,   101,   100,   112,   113
    10,   106,   105,   117,   118,   108,   107,   119,   120,   110,   121,
         122,   123,   115,   126,   127,   128,   113,   112,   124,   125
** ... 1004 like lines cut
** Names based on fix
*NSET,NSET=Nfix 
1, 
2, 
5, 
6, 
9, 
13, 
14, 
17, 
393, 
394, 
397, 
398, 
401, 
622, 
623, 
626, 
627, 
630, 
851, 
852, 
** ... 45 like lines cut
** Names based on load2
*NSET,NSET=Nload2 
383, 
615, 
617, 
844, 
846, 
1303, 
1308, 
1436, 
1437, 
1439, 
1567, 
1568, 
1570, 
1925, 
1930, 
2058, 
2059, 
2061, 
2189, 
2190, 
2192, 
*TIMEPOINTS, TIME=TOTAL TIME, NAME=T1, GENERATE
0., 11., .1
*AMPLITUDE, NAME=A1
0., 0., 2., 0., 2.1, 1., 4., 1.
4.1, 5., 8., 5., 8.1, 0., 11., 0.
*BOUNDARY
Nfix, 1, 3
*MATERIAL,NAME=C355
*ELASTIC
200000,0.3
**PLASTIC
**0.,0.
**0.,10.
**CREEP
**1.e-10,5.,0.
*DENSITY
7.9e-9
*SOLID SECTION, MATERIAL=C355, ELSET=Eall
*STEP, NLGEOM, INC=200
*STATIC
0.01, 11
*CLOAD, AMPLITUDE=A1
Nload2, 3, 400
*EL FILE, TIMEPOINTS=T1
E, S
*NODE FILE, TIMEPOINTS=T1
U
*END STEP
