*NODE, NSET=Nall
       1,5.000000000000e+00,5.000000000000e+00,-3.903127820948e-18
       2,5.000000000000e+00,-5.000000000000e+00,-3.903127820948e-18
       3,-5.000000000000e+00,5.000000000000e+00,-3.903127820948e-18
       4,-5.000000000000e+00,-5.000000000000e+00,-3.903127820948e-18
       5,1.400000000000e+01,6.000000000000e+00,-1.000000000000e-01
       6,1.400000000000e+01,-4.000000000000e+00,-1.000000000000e-01
       7,4.000000000000e+00,6.000000000000e+00,-1.000000000000e-01
       8,4.000000000000e+00,-4.000000000000e+00,-1.000000000000e-01
       9,-5.000000000000e+00,-4.750000000000e+00,-3.903127820948e-18
      10,-5.000000000000e+00,-4.500000000000e+00,-3.903127820948e-18
      11,-5.000000000000e+00,-4.250000000000e+00,-3.903127820948e-18
      12,-5.000000000000e+00,-4.000000000000e+00,-3.903127820948e-18
      13,-5.000000000000e+00,-3.750000000000e+00,-3.903127820948e-18
      14,-5.000000000000e+00,-3.500000000000e+00,-3.903127820948e-18
      15,-5.000000000000e+00,-3.250000000000e+00,-3.903127820948e-18
      16,-5.000000000000e+00,-3.000000000000e+00,-3.903127820948e-18
      17,-5.000000000000e+00,-2.750000000000e+00,-3.903127820948e-18
      18,-5.000000000000e+00,-2.500000000000e+00,-3.903127820948e-18
      19,-5.000000000000e+00,-2.250000000000e+00,-3.903127820948e-18
      20,-5.000000000000e+00,-2.000000000000e+00,-3.903127820948e-18
** ... 15414 like lines cut
*ELEMENT, TYPE=S6, ELSET=Eall
   321,      9,     48,      4,   4261,   3981,   3941
   322,     10,    321,      9,   4263,   4262,   3942
   323,     11,    322,     10,   4265,   4264,   3943
   324,     10,    322,    321,   4264,   4266,   4263
   325,     12,    323,     11,   4268,   4267,   3944
   326,     11,    323,    322,   4267,   4269,   4265
   327,     13,    324,     12,   4271,   4270,   3945
   328,     12,    324,    323,   4270,   4272,   4268
   329,     14,    325,     13,   4274,   4273,   3946
   330,     13,    325,    324,   4273,   4275,   4271
   331,     15,    326,     14,   4277,   4276,   3947
   332,     14,    326,    325,   4276,   4278,   4274
   333,     16,    327,     15,   4280,   4279,   3948
   334,     15,    327,    326,   4279,   4281,   4277
   335,     17,    328,     16,   4283,   4282,   3949
   336,     16,    328,    327,   4282,   4284,   4280
   337,     18,    329,     17,   4286,   4285,   3950
   338,     17,    329,    328,   4285,   4287,   4283
   339,     19,    330,     18,   4289,   4288,   3951
   340,     18,    330,    329,   4288,   4290,   4286
** ... 7536 like lines cut
** Names based on plate1
*NSET,NSET=plate1 
1, 
2, 
3, 
4, 
9, 
10, 
11, 
12, 
13, 
14, 
15, 
16, 
17, 
18, 
19, 
20, 
21, 
22, 
23, 
24, 
** ... 7721 like lines cut
*ELSET,ELSET=plate1 
321, 
322, 
323, 
324, 
325, 
326, 
327, 
328, 
329, 
330, 
331, 
332, 
333, 
334, 
335, 
336, 
337, 
338, 
339, 
340, 
** ... 3770 like lines cut
** Names based on fix
*NSET,NSET=fix 
3, 
4, 
5, 
6, 
9, 
10, 
11, 
12, 
13, 
14, 
15, 
16, 
17, 
18, 
19, 
20, 
21, 
22, 
23, 
24, 
** ... 142 like lines cut
** Names based on S6
*ELSET,ELSET=S6 
321, 
322, 
323, 
324, 
325, 
326, 
327, 
328, 
329, 
330, 
331, 
332, 
333, 
334, 
335, 
336, 
337, 
338, 
339, 
340, 
** ... 7536 like lines cut
** Names based on plate2
*NSET,NSET=plate2 
5, 
6, 
7, 
8, 
165, 
166, 
167, 
168, 
169, 
170, 
171, 
172, 
173, 
174, 
175, 
176, 
177, 
178, 
179, 
180, 
** ... 7673 like lines cut
*ELSET,ELSET=plate2 
1116, 
1119, 
4113, 
4114, 
4115, 
4116, 
4117, 
4118, 
4119, 
4120, 
4121, 
4122, 
4123, 
4124, 
4125, 
4126, 
4127, 
4128, 
4129, 
4130, 
** ... 3746 like lines cut
** Surfaces based on plate1
*SURFACE, NAME=plate1
439, SPOS 
419, SPOS 
397, SPOS 
398, SPOS 
321, SPOS 
322, SPOS 
564, SPOS 
631, SPOS 
323, SPOS 
324, SPOS 
325, SPOS 
326, SPOS 
327, SPOS 
328, SPOS 
329, SPOS 
330, SPOS 
331, SPOS 
332, SPOS 
333, SPOS 
334, SPOS 
** ... 3770 like lines cut
** Surfaces based on all
*SURFACE, NAME=all
439, SPOS 
419, SPOS 
397, SPOS 
398, SPOS 
321, SPOS 
4231, SPOS 
4211, SPOS 
4189, SPOS 
4190, SPOS 
4113, SPOS 
322, SPOS 
564, SPOS 
631, SPOS 
323, SPOS 
324, SPOS 
325, SPOS 
326, SPOS 
327, SPOS 
328, SPOS 
329, SPOS 
** ... 7536 like lines cut
** Surfaces based on S6
*SURFACE, NAME=S6
** Surfaces based on fix
*SURFACE, NAME=fix
** Surfaces based on plate2
*SURFACE, NAME=plate2
4231, SPOS 
4211, SPOS 
4189, SPOS 
4190, SPOS 
4113, SPOS 
4114, SPOS 
4355, SPOS 
4423, SPOS 
4115, SPOS 
4116, SPOS 
4117, SPOS 
4118, SPOS 
4119, SPOS 
4120, SPOS 
4121, SPOS 
4122, SPOS 
4123, SPOS 
4124, SPOS 
4125, SPOS 
4126, SPOS 
** ... 3746 like lines cut
*MATERIAL,NAME=aluminum
*ELASTIC
6.8900E+10,0.33
*DENSITY
2.7000E+03


*SHELL SECTION,MATERIAL=aluminum,ELSET=Eall,,OFFSET=0.0000E+00
0.2

*BOUNDARY
fix,1,1,0
fix,2,2,0
fix,3,3,0
fix,4,4,0
fix,5,5,0
fix,6,6,0

*CONTACT PAIR,INTERACTION=SI1,TYPE=SURFACE TO SURFACE
plate2,plate1
*SURFACE INTERACTION,NAME=SI1
*SURFACE BEHAVIOR,PRESSURE-OVERCLOSURE=Linear
3445000000000,0

*STEP,NLGEOM
*STATIC
0.1,1
*CLOAD
plate1,3,-500

  *NODE FILE 
U,
  *EL FILE
S,
*NODE PRINT,NSET=fix
RF
*END STEP
