*NODE, NSET=Nall
       1,-5.000000000000e-02,-5.000000000000e-01,0.000000000000e+00
       2,-5.000000000000e-02,5.000000000000e-01,0.000000000000e+00
       3,5.000000000000e-02,-5.000000000000e-01,0.000000000000e+00
       4,5.000000000000e-02,5.000000000000e-01,0.000000000000e+00
       5,-5.000000000000e-02,-5.000000000000e-01,1.000000000000e-02
       6,-5.000000000000e-02,5.000000000000e-01,1.000000000000e-02
       7,5.000000000000e-02,-5.000000000000e-01,1.000000000000e-02
       8,5.000000000000e-02,5.000000000000e-01,1.000000000000e-02
       9,-5.000000000000e-02,-4.750000000000e-01,0.000000000000e+00
      10,-5.000000000000e-02,-4.500000000000e-01,0.000000000000e+00
      11,-5.000000000000e-02,-4.250000000000e-01,0.000000000000e+00
      12,-5.000000000000e-02,-4.000000000000e-01,0.000000000000e+00
      13,-5.000000000000e-02,-3.750000000000e-01,0.000000000000e+00
      14,-5.000000000000e-02,-3.500000000000e-01,0.000000000000e+00
      15,-5.000000000000e-02,-3.250000000000e-01,0.000000000000e+00
      16,-5.000000000000e-02,-3.000000000000e-01,0.000000000000e+00
      17,-5.000000000000e-02,-2.750000000000e-01,0.000000000000e+00
      18,-5.000000000000e-02,-2.500000000000e-01,0.000000000000e+00
      19,-5.000000000000e-02,-2.250000000000e-01,0.000000000000e+00
      20,-5.000000000000e-02,-2.000000000000e-01,0.000000000000e+00
** ... 1118 like lines cut
*ELEMENT, TYPE=S8R, ELSET=Eall
   177,      2,     47,    177,     90,    450,    588,    587,    495
   178,     90,    177,    178,     91,    587,    590,    589,    496
   179,     91,    178,    179,     92,    589,    592,    591,    497
   180,     92,    179,     89,      4,    591,    593,    494,    498
   181,     47,     46,    180,    177,    449,    595,    594,    588
   182,    177,    180,    181,    178,    594,    597,    596,    590
   183,    178,    181,    182,    179,    596,    599,    598,    592
   184,    179,    182,     88,     89,    598,    600,    493,    593
   185,     46,     45,    183,    180,    448,    602,    601,    595
   186,    180,    183,    184,    181,    601,    604,    603,    597
   187,    181,    184,    185,    182,    603,    606,    605,    599
   188,    182,    185,     87,     88,    605,    607,    492,    600
   189,     45,     44,    186,    183,    447,    609,    608,    602
   190,    183,    186,    187,    184,    608,    611,    610,    604
   191,    184,    187,    188,    185,    610,    613,    612,    606
   192,    185,    188,     86,     87,    612,    614,    491,    607
   193,     44,     43,    189,    186,    446,    616,    615,    609
   194,    186,    189,    190,    187,    615,    618,    617,    611
   195,    187,    190,    191,    188,    617,    620,    619,    613
   196,    188,    191,     85,     86,    619,    621,    490,    614
** ... 300 like lines cut
** Names based on bot
*NSET,NSET=bot 
1, 
2, 
3, 
4, 
9, 
10, 
11, 
12, 
13, 
14, 
15, 
16, 
17, 
18, 
19, 
20, 
21, 
22, 
23, 
24, 
** ... 549 like lines cut
*ELSET,ELSET=bot 
177, 
178, 
179, 
180, 
181, 
182, 
183, 
184, 
185, 
186, 
187, 
188, 
189, 
190, 
191, 
192, 
193, 
194, 
195, 
196, 
** ... 140 like lines cut
** Names based on S8R
*ELSET,ELSET=S8R 
177, 
178, 
179, 
180, 
181, 
182, 
183, 
184, 
185, 
186, 
187, 
188, 
189, 
190, 
191, 
192, 
193, 
194, 
195, 
196, 
** ... 300 like lines cut
** Names based on load
*NSET,NSET=load 
6, 
8, 
174, 
175, 
176, 
583, 
584, 
585, 
586, 
** Names based on fix2
*NSET,NSET=fix2 
1, 
3, 
48, 
49, 
50, 
451, 
452, 
453, 
454, 
** Names based on fix1
*NSET,NSET=fix1 
5, 
7, 
132, 
133, 
134, 
539, 
540, 
541, 
542, 
** Names based on top
*NSET,NSET=top 
5, 
6, 
7, 
8, 
93, 
94, 
95, 
96, 
97, 
98, 
99, 
100, 
101, 
102, 
103, 
104, 
105, 
106, 
107, 
108, 
** ... 549 like lines cut
*ELSET,ELSET=top 
337, 
338, 
339, 
340, 
341, 
342, 
343, 
344, 
345, 
346, 
347, 
348, 
349, 
350, 
351, 
352, 
353, 
354, 
355, 
356, 
** ... 140 like lines cut
** Surfaces based on fix2
*SURFACE, NAME=fix2
** Surfaces based on load
*SURFACE, NAME=load
** Surfaces based on bot
*SURFACE, NAME=bot
333, SPOS 
177, SPOS 
336, SPOS 
180, SPOS 
329, SPOS 
325, SPOS 
321, SPOS 
317, SPOS 
313, SPOS 
309, SPOS 
305, SPOS 
301, SPOS 
297, SPOS 
293, SPOS 
289, SPOS 
285, SPOS 
281, SPOS 
277, SPOS 
273, SPOS 
269, SPOS 
** ... 140 like lines cut
** Surfaces based on all
*SURFACE, NAME=all
333, SPOS 
177, SPOS 
336, SPOS 
180, SPOS 
337, SPOS 
493, SPOS 
340, SPOS 
496, SPOS 
329, SPOS 
325, SPOS 
321, SPOS 
317, SPOS 
313, SPOS 
309, SPOS 
305, SPOS 
301, SPOS 
297, SPOS 
293, SPOS 
289, SPOS 
285, SPOS 
** ... 300 like lines cut
** Surfaces based on fix1
*SURFACE, NAME=fix1
** Surfaces based on S8R
*SURFACE, NAME=S8R
** Surfaces based on top
*SURFACE, NAME=top
337, SPOS 
493, SPOS 
340, SPOS 
496, SPOS 
341, SPOS 
345, SPOS 
349, SPOS 
353, SPOS 
357, SPOS 
361, SPOS 
365, SPOS 
369, SPOS 
373, SPOS 
377, SPOS 
381, SPOS 
385, SPOS 
389, SPOS 
393, SPOS 
397, SPOS 
401, SPOS 
** ... 140 like lines cut

*MATERIAL,NAME=steel
*ELASTIC
2.0000E+11,0.28
*DENSITY
7.8500E+03
*EXPANSION
1.3000E-05


*SHELL SECTION,MATERIAL=steel,ELSET=top,,OFFSET=0.0000E+00
6.0000E-03

*SHELL SECTION,MATERIAL=steel,ELSET=bot,,OFFSET=0.0000E+00
4.0000E-03

*BOUNDARY
fix2,1,1,0
fix2,2,2,0
fix2,3,3,0
fix2,4,4,0
fix2,5,5,0
fix2,6,6,0

*BOUNDARY
fix1,1,1,0
fix1,2,2,0
fix1,3,3,0
fix1,4,4,0
fix1,5,5,0
fix1,6,6,0

*CONTACT PAIR,INTERACTION=SI1,TYPE=SURFACE TO SURFACE
top,bot
*SURFACE INTERACTION,NAME=SI1
*SURFACE BEHAVIOR,PRESSURE-OVERCLOSURE=Linear
10000000000000,0



*STEP
*STATIC
*CLOAD
load,3,-1.1111E+01

  *NODE FILE 
U,
  *EL FILE
S,
*NODE PRINT,NSET=fix2
RF
*NODE PRINT,NSET=fix1
RF
*CONTACT OUTPUT
CDIS,CSTR 
*END STEP
