*NODE, NSET=Nall
       1,-1.000000000000e+01,-5.000000000000e+01,0.000000000000e+00
       2,-1.000000000000e+01,5.000000000000e+01,0.000000000000e+00
       3,1.000000000000e+01,-5.000000000000e+01,0.000000000000e+00
       4,1.000000000000e+01,5.000000000000e+01,0.000000000000e+00
       5,-1.000000000000e+01,3.000000000000e+01,-1.000000000000e+00
       6,-1.000000000000e+01,1.300000000000e+02,-1.000000000000e+00
       7,1.000000000000e+01,3.000000000000e+01,-1.000000000000e+00
       8,1.000000000000e+01,1.300000000000e+02,-1.000000000000e+00
       9,-1.000000000000e+01,-4.500000000000e+01,0.000000000000e+00
      10,-1.000000000000e+01,-4.000000000000e+01,0.000000000000e+00
      11,-1.000000000000e+01,-3.500000000000e+01,0.000000000000e+00
      12,-1.000000000000e+01,-3.000000000000e+01,0.000000000000e+00
      13,-1.000000000000e+01,-2.500000000000e+01,0.000000000000e+00
      14,-1.000000000000e+01,-2.000000000000e+01,0.000000000000e+00
      15,-1.000000000000e+01,-1.500000000000e+01,0.000000000000e+00
      16,-1.000000000000e+01,-1.000000000000e+01,0.000000000000e+00
      17,-1.000000000000e+01,-5.000000000000e+00,0.000000000000e+00
      18,-1.000000000000e+01,0.000000000000e+00,0.000000000000e+00
      19,-1.000000000000e+01,5.000000000000e+00,0.000000000000e+00
      20,-1.000000000000e+01,1.000000000000e+01,0.000000000000e+00
** ... 558 like lines cut
*ELEMENT, TYPE=S8R, ELSET=Eall
    97,      2,     50,     97,     27,    255,    308,    307,    230
    98,     50,     51,     98,     97,    256,    310,    309,    308
    99,     51,     52,     99,     98,    257,    312,    311,    310
   100,     52,      4,     49,     99,    258,    254,    313,    312
   101,     27,     97,    100,     26,    307,    315,    314,    229
   102,     97,     98,    101,    100,    309,    317,    316,    315
   103,     98,     99,    102,    101,    311,    319,    318,    317
   104,     99,     49,     48,    102,    313,    253,    320,    319
   105,     26,    100,    103,     25,    314,    322,    321,    228
   106,    100,    101,    104,    103,    316,    324,    323,    322
   107,    101,    102,    105,    104,    318,    326,    325,    324
   108,    102,     48,     47,    105,    320,    252,    327,    326
   109,     25,    103,    106,     24,    321,    329,    328,    227
   110,    103,    104,    107,    106,    323,    331,    330,    329
   111,    104,    105,    108,    107,    325,    333,    332,    331
   112,    105,     47,     46,    108,    327,    251,    334,    333
   113,     24,    106,    109,     23,    328,    336,    335,    226
   114,    106,    107,    110,    109,    330,    338,    337,    336
   115,    107,    108,    111,    110,    332,    340,    339,    338
   116,    108,     46,     45,    111,    334,    250,    341,    340
** ... 140 like lines cut
** Names based on slave
*NSET,NSET=slave 
5, 
6, 
7, 
8, 
53, 
54, 
55, 
56, 
57, 
58, 
59, 
60, 
61, 
62, 
63, 
64, 
65, 
66, 
67, 
68, 
** ... 269 like lines cut
** Names based on S8R
*ELSET,ELSET=S8R 
97, 
98, 
99, 
100, 
101, 
102, 
103, 
104, 
105, 
106, 
107, 
108, 
109, 
110, 
111, 
112, 
113, 
114, 
115, 
116, 
** ... 140 like lines cut
** Names based on master
*NSET,NSET=master 
1, 
2, 
3, 
4, 
9, 
10, 
11, 
12, 
13, 
14, 
15, 
16, 
17, 
18, 
19, 
20, 
21, 
22, 
23, 
24, 
** ... 269 like lines cut
** Names based on fix
*NSET,NSET=fix 
1, 
3, 
28, 
29, 
30, 
231, 
232, 
233, 
234, 
** Names based on movedz
*NSET,NSET=movedz 
6, 
8, 
94, 
95, 
96, 
303, 
304, 
305, 
306, 
** Surfaces based on fix
*SURFACE, NAME=fix
** Surfaces based on slave
*SURFACE, NAME=slave
177, SPOS 
253, SPOS 
180, SPOS 
256, SPOS 
181, SPOS 
185, SPOS 
189, SPOS 
193, SPOS 
197, SPOS 
201, SPOS 
205, SPOS 
209, SPOS 
213, SPOS 
217, SPOS 
221, SPOS 
225, SPOS 
229, SPOS 
233, SPOS 
237, SPOS 
241, SPOS 
** ... 60 like lines cut
** Surfaces based on master
*SURFACE, NAME=master
173, SPOS 
97, SPOS 
176, SPOS 
100, SPOS 
169, SPOS 
165, SPOS 
161, SPOS 
157, SPOS 
153, SPOS 
149, SPOS 
145, SPOS 
141, SPOS 
137, SPOS 
133, SPOS 
129, SPOS 
125, SPOS 
121, SPOS 
117, SPOS 
113, SPOS 
109, SPOS 
** ... 60 like lines cut
** Surfaces based on movedz
*SURFACE, NAME=movedz
** Surfaces based on all
*SURFACE, NAME=all
173, SPOS 
97, SPOS 
176, SPOS 
100, SPOS 
177, SPOS 
253, SPOS 
180, SPOS 
256, SPOS 
169, SPOS 
165, SPOS 
161, SPOS 
157, SPOS 
153, SPOS 
149, SPOS 
145, SPOS 
141, SPOS 
137, SPOS 
133, SPOS 
129, SPOS 
125, SPOS 
** ... 140 like lines cut
** Surfaces based on S8R
*SURFACE, NAME=S8R

*MATERIAL,NAME=steel
*ELASTIC
2.0000E+05,0.28


*DENSITY
7.8500E-09
*EXPANSION
1.3000E-05


*SHELL SECTION,ELSET=Eall,COMPOSITE 
1.0000E-01,,steel
1.0000E-01,,steel
1.0000E-01,,steel
1.0000E-01,,steel
1.0000E-01,,steel
1.0000E-01,,steel
1.0000E-01,,steel
1.0000E-01,,steel
1.0000E-01,,steel
1.0000E-01,,steel

*BOUNDARY
fix,1,1,0
fix,2,2,0
fix,3,3,0
fix,4,4,0

*BOUNDARY
movedz,1,1,0
movedz,2,2,0
movedz,3,3,50
movedz,4,4,0

*CONTACT PAIR,INTERACTION=SI2,TYPE=SURFACE TO SURFACE,ADJUST=0
slave,master
*SURFACE INTERACTION,NAME=SI2
*SURFACE BEHAVIOR,PRESSURE-OVERCLOSURE=Linear
10000000,0


*TIME POINTS,NAME=T1,GENERATE
0,1,1.0000E-01

*STEP,NLGEOM,INC=1000
*STATIC
0.1,1
  *NODE FILE ,TIME POINTS=T1
U,
  *EL FILE,TIME POINTS=T1
S,
*NODE PRINT,NSET=fix,TIME POINTS=T1
RF
*NODE PRINT,NSET=movedz,TIME POINTS=T1
RF
*CONTACT OUTPUT
CDIS,CSTR 
*END STEP
