*NODE, NSET=Nall
       1,0.000000000000e+000,1.000000000000e+002,0.000000000000e+000
       2,0.000000000000e+000,7.500000000000e+001,0.000000000000e+000
       3,0.000000000000e+000,7.500000000000e+001,3.000000000000e+001
       4,0.000000000000e+000,1.000000000000e+002,3.000000000000e+001
       5,0.000000000000e+000,7.500000000000e+001,6.000000000000e+001
       6,0.000000000000e+000,1.000000000000e+002,6.000000000000e+001
       7,0.000000000000e+000,7.500000000000e+001,9.000000000000e+001
       8,0.000000000000e+000,1.000000000000e+002,9.000000000000e+001
       9,0.000000000000e+000,7.500000000000e+001,1.200000000000e+002
      10,0.000000000000e+000,1.000000000000e+002,1.200000000000e+002
      11,0.000000000000e+000,7.500000000000e+001,1.500000000000e+002
      12,0.000000000000e+000,1.000000000000e+002,1.500000000000e+002
      13,0.000000000000e+000,7.500000000000e+001,1.800000000000e+002
      14,0.000000000000e+000,1.000000000000e+002,1.800000000000e+002
      15,0.000000000000e+000,7.500000000000e+001,2.100000000000e+002
      16,0.000000000000e+000,1.000000000000e+002,2.100000000000e+002
      17,0.000000000000e+000,7.500000000000e+001,2.400000000000e+002
      18,0.000000000000e+000,1.000000000000e+002,2.400000000000e+002
      19,0.000000000000e+000,7.500000000000e+001,2.700000000000e+002
      20,0.000000000000e+000,1.000000000000e+002,2.700000000000e+002
** ... 492 like lines cut
*ELEMENT, TYPE=S8R, ELSET=Eall
     1,      1,      2,      3,      4,    177,    178,    179,    180
     2,      4,      3,      5,      6,    179,    182,    183,    184
     3,      6,      5,      7,      8,    183,    186,    187,    188
     4,      8,      7,      9,     10,    187,    190,    191,    192
     5,     10,      9,     11,     12,    191,    194,    195,    196
     6,     12,     11,     13,     14,    195,    198,    199,    200
     7,     14,     13,     15,     16,    199,    202,    203,    204
     8,     16,     15,     17,     18,    203,    206,    207,    208
     9,     18,     17,     19,     20,    207,    210,    211,    212
    10,     20,     19,     21,     22,    211,    214,    215,    216
    11,      2,     23,     24,      3,    218,    219,    220,    178
    12,      3,     24,     25,      5,    220,    222,    223,    182
    13,      5,     25,     26,      7,    223,    225,    226,    186
    14,      7,     26,     27,      9,    226,    228,    229,    190
    15,      9,     27,     28,     11,    229,    231,    232,    194
    16,     11,     28,     29,     13,    232,    234,    235,    198
    17,     13,     29,     30,     15,    235,    237,    238,    202
    18,     15,     30,     31,     17,    238,    240,    241,    206
    19,     17,     31,     32,     19,    241,    243,    244,    210
    20,     19,     32,     33,     21,    244,    246,    247,    214
** ... 140 like lines cut
** Names based on Nfix
*NSET,NSET=Nfix 
1, 
2, 
23, 
34, 
45, 
56, 
57, 
78, 
89, 
100, 
101, 
122, 
133, 
144, 
155, 
166, 
** Names based on Nload
*NSET,NSET=Nload 
21, 
22, 
33, 
44, 
55, 
76, 
77, 
88, 
99, 
120, 
121, 
132, 
143, 
154, 
165, 
176, 

*MATERIAL,NAME=Mat1
*ELASTIC
210000,0.3


*SHELL SECTION,MATERIAL=Mat1,ELSET=Eall,,OFFSET=0.0000E+00
5

*BOUNDARY
Nfix,1,3,0


*STEP
*STATIC
*CLOAD
Nload,3,100
*NODE FILE 
U,
*EL FILE
S,
*END STEP
