*NODE, NSET=Nwange
       1,8.850000000000e+001,0.000000000000e+000,0.000000000000e+000
       2,8.649835000000e+001,0.000000000000e+000,0.000000000000e+000
       3,8.649835000000e+001,0.000000000000e+000,3.916666666667e+000
       4,8.850000000000e+001,0.000000000000e+000,3.916666666667e+000
       5,8.822718403538e+001,6.943629971914e+000,0.000000000000e+000
       6,8.623170445431e+001,6.786582322951e+000,7.105427357601e-015
       7,8.623170445431e+001,6.786582322951e+000,3.916666666667e+000
       8,8.822718403538e+001,6.943629971914e+000,3.916666666667e+000
       9,8.649835000000e+001,0.000000000000e+000,7.833333333333e+000
      10,8.850000000000e+001,0.000000000000e+000,7.833333333333e+000
      11,8.623170445431e+001,6.786582322951e+000,7.833333333333e+000
      12,8.822718403538e+001,6.943629971914e+000,7.833333333333e+000
      13,8.649835000000e+001,0.000000000000e+000,1.175000000000e+001
      14,8.850000000000e+001,0.000000000000e+000,1.175000000000e+001
      15,8.623170445431e+001,6.786582322951e+000,1.175000000000e+001
      16,8.822718403538e+001,6.943629971914e+000,1.175000000000e+001
      17,8.649835000000e+001,0.000000000000e+000,1.566666666667e+001
      18,8.850000000000e+001,0.000000000000e+000,1.566666666667e+001
      19,8.623170445431e+001,6.786582322951e+000,1.566666666667e+001
      20,8.822718403538e+001,6.943629971914e+000,1.566666666667e+001
** ... 21820 like lines cut
*ELEMENT, TYPE=C3D8, ELSET=Ewange
     1,     1,     2,     3,     4,     5,     6,     7,     8
     2,     4,     3,     9,    10,     8,     7,    11,    12
     3,    10,     9,    13,    14,    12,    11,    15,    16
     4,    14,    13,    17,    18,    16,    15,    19,    20
     5,    18,    17,    21,    22,    20,    19,    23,    24
     6,    22,    21,    25,    26,    24,    23,    27,    28
     7,    26,    25,    29,    30,    28,    27,    31,    32
     8,    30,    29,    33,    34,    32,    31,    35,    36
     9,    34,    33,    37,    38,    36,    35,    39,    40
    10,    38,    37,    41,    42,    40,    39,    43,    44
    11,    42,    41,    45,    46,    44,    43,    47,    48
    12,    46,    45,    49,    50,    48,    47,    51,    52
    13,     5,     6,     7,     8,    53,    54,    55,    56
    14,     8,     7,    11,    12,    56,    55,    57,    58
    15,    12,    11,    15,    16,    58,    57,    59,    60
    16,    16,    15,    19,    20,    60,    59,    61,    62
    17,    20,    19,    23,    24,    62,    61,    63,    64
    18,    24,    23,    27,    28,    64,    63,    65,    66
    19,    28,    27,    31,    32,    66,    65,    67,    68
    20,    32,    31,    35,    36,    68,    67,    69,    70
** ... 19180 like lines cut
*NODE, NSET=Nbolzen
   21841,-4.850000000000e+001,0.000000000000e+000,0.000000000000e+000
   21842,-4.835049068606e+001,3.805266142800e+000,0.000000000000e+000
   21843,-4.835049068606e+001,3.805266142800e+000,3.916666666667e+000
   21844,-4.850000000000e+001,0.000000000000e+000,3.916666666667e+000
   21845,-4.835049068606e+001,-3.805266142800e+000,0.000000000000e+000
   21846,-4.783540568923e+001,7.676151381197e-016,1.065814103640e-014
   21847,-4.783540568923e+001,9.835068957159e-016,3.916666666667e+000
   21848,-4.835049068606e+001,-3.805266142800e+000,3.916666666667e+000
   21849,-4.835049068606e+001,3.805266142800e+000,7.833333333333e+000
   21850,-4.850000000000e+001,0.000000000000e+000,7.833333333333e+000
   21851,-4.783540568923e+001,2.014989737564e-015,7.833333333333e+000
   21852,-4.835049068606e+001,-3.805266142800e+000,7.833333333333e+000
   21853,-4.835049068606e+001,3.805266142800e+000,1.175000000000e+001
   21854,-4.850000000000e+001,0.000000000000e+000,1.175000000000e+001
   21855,-4.783540568923e+001,2.398797306624e-015,1.175000000000e+001
   21856,-4.835049068606e+001,-3.805266142800e+000,1.175000000000e+001
   21857,-4.835049068606e+001,3.805266142800e+000,1.566666666667e+001
   21858,-4.850000000000e+001,0.000000000000e+000,1.566666666667e+001
   21859,-4.783540568923e+001,1.631182168504e-015,1.566666666667e+001
   21860,-4.835049068606e+001,-3.805266142800e+000,1.566666666667e+001
** ... 5713 like lines cut
*ELEMENT, TYPE=C3D8, ELSET=Ebolzen
 19201, 21841, 21842, 21843, 21844, 21845, 21846, 21847, 21848
 19202, 21844, 21843, 21849, 21850, 21848, 21847, 21851, 21852
 19203, 21850, 21849, 21853, 21854, 21852, 21851, 21855, 21856
 19204, 21854, 21853, 21857, 21858, 21856, 21855, 21859, 21860
 19205, 21858, 21857, 21861, 21862, 21860, 21859, 21863, 21864
 19206, 21862, 21861, 21865, 21866, 21864, 21863, 21867, 21868
 19207, 21866, 21865, 21869, 21870, 21868, 21867, 21871, 21872
 19208, 21870, 21869, 21873, 21874, 21872, 21871, 21875, 21876
 19209, 21874, 21873, 21877, 21878, 21876, 21875, 21879, 21880
 19210, 21878, 21877, 21881, 21882, 21880, 21879, 21883, 21884
 19211, 21882, 21881, 21885, 21886, 21884, 21883, 21887, 21888
 19212, 21886, 21885, 21889, 21890, 21888, 21887, 21891, 21892
 19213, 21845, 21846, 21847, 21848, 21893, 21894, 21895, 21896
 19214, 21848, 21847, 21851, 21852, 21896, 21895, 21897, 21898
 19215, 21852, 21851, 21855, 21856, 21898, 21897, 21899, 21900
 19216, 21856, 21855, 21859, 21860, 21900, 21899, 21901, 21902
 19217, 21860, 21859, 21863, 21864, 21902, 21901, 21903, 21904
 19218, 21864, 21863, 21867, 21868, 21904, 21903, 21905, 21906
 19219, 21868, 21867, 21871, 21872, 21906, 21905, 21907, 21908
 19220, 21872, 21871, 21875, 21876, 21908, 21907, 21909, 21910
** ... 4780 like lines cut
*NSET,NSET=Nfix 
1, 
4, 
5, 
8, 
10, 
12, 
14, 
16, 
18, 
20, 
22, 
24, 
26, 
28, 
30, 
32, 
34, 
36, 
38, 
40, 
** ... 1020 like lines cut
*NSET,NSET=Nslave 
5461, 
5462, 
5463, 
5464, 
5465, 
5466, 
5467, 
5468, 
5469, 
5470, 
5471, 
5472, 
5473, 
5474, 
5475, 
5476, 
5477, 
5478, 
5479, 
5480, 
** ... 1020 like lines cut
*MATERIAL, NAME=guss
*ELASTIC
1.69E5,0.275
*SOLID SECTION,ELSET=Ewange, MATERIAL=guss
*MATERIAL, NAME=stahl
*ELASTIC
2.1E5,0.3
*SOLID SECTION, ELSET=Ebolzen, MATERIAL=stahl
*BOUNDARY
Nfix,1,3
*SURFACE, TYPE=NODE, NAME=slave
Nslave
*SURFACE, NAME=master
19201, S6 
19201, S1 
19202, S6 
19202, S1 
19203, S1 
19203, S6 
19204, S6 
19204, S1 
19205, S1 
19205, S6 
19206, S6 
19206, S1 
19207, S1 
19207, S6 
19208, S1 
19208, S6 
19209, S6 
19209, S1 
19210, S1 
19210, S6 
** ... 940 like lines cut

*CONTACT PAIR,INTERACTION=I1, SMALL SLIDING
slave,master
*SURFACE INTERACTION, NAME=I1
*SURFACE BEHAVIOR, PRESSURE-OVERCLOSURE=LINEAR
0.6266E5
*STEP
*STATIC
*NODE FILE
U
*EL FILE
S
*END STEP