*NODE
1,0,0,0
2,1,0,0
3,1,1,0
4,0,1,0
5,0.5,0,0
6,1,0.5,0
7,0.5,1,0
8,0,0.5,0
*ELEMENT,TYPE=S8
1,1,2,3,4,5,6,7,8
*MATERIAL,NAME=Material
*ELASTIC,TYPE=ISOTROPIC
4e9,0.4
*NSET,NSET=transformednode
3
*ELSET,ELSET=Default
1
*SHELL SECTION,ELSET=Default,MATERIAL=Material
0.03
*TRANSFORM,NSET=transformednode
1,0,0,0,1,0
*BOUNDARY
1,1,6,0
2,1,6,0
5,1,6,0
*STEP
*STATIC
*CLOAD
4,4,1.1
3,4,1.1
*NODE FILE,GLOBAL=YES,OUTPUT=2D
U,RF
*END STEP
