*Heading
 same as large_bottle_newRPs, but no assembly used
** Job name: large_bottle_newRPs_no_assembly Model name: large_geometry_newRPs_no_assembly
** Generated by: Abaqus/CAE 6.14-2
** ----------------------------------------------------------------
** 
** PART INSTANCE: Bottle-Shell-Small-3X-1
** 
*Node
      1,           0.,           0.,        26.25
      2,           0.,           0.,           0.
      3,        26.25,           0.,           0.
      4,           0.,           0.,       -26.25
      5,       -26.25,           0.,           0.
      6,           0.,   3.74999952,         -30.
      7,          30.,   3.74999952,           0.
      8,           0.,   3.74999952,          30.
      9,         -30.,   3.74999952,           0.
     10,           0.,       101.25,         -30.
     11,          30.,       101.25,           0.
     12,           0.,       101.25,          30.
     13,         -30.,       101.25,           0.
     14,           0.,         105.,       -26.25
     15,        26.25,         105.,           0.
     16,           0.,         105.,        26.25
     17,       -26.25,         105.,           0.
     18,           0.,         105.,        -22.5
     19,         22.5,         105.,           0.
     20,           0.,         105.,         22.5
** ... 7809 like lines cut
*Element, type=S4
  1, 1060, 1109, 1038, 1098
  2, 1071, 1041, 1039, 1073
  3, 1026,   66,   67, 1030
  4, 1037,   48,   49, 1032
  5,   42, 1043, 1042,   41
  6, 1018,   59,   60, 1017
  7, 1023, 1053, 1061, 1020
  8, 1022,   69,   70, 1060
  9, 1074, 1111, 1093, 1075
 10,   39,   40, 1039, 1041
 11,   48, 1037, 1033,   47
 12, 1050, 1077, 1079, 1052
 13, 1032,   49,   50, 1031
 14, 1068, 1065, 1037, 1032
 15,   44, 1035,   43,    2
 16,   53,    3,   54, 1021
 17, 1020,   55,   56, 1023
 18, 1103, 1112, 1096, 1107
 19, 1017,   60,   61, 1027
 20, 1029, 1028, 1049, 1056
** ... 7807 like lines cut
*Nset, nset=Bottle-Shell-Small-3X-1_Set-2, generate
    1,  7829,     1
*Elset, elset=Bottle-Shell-Small-3X-1_Set-2, generate
    1,  7827,     1
*Nset, nset=Bottle-Shell-Small-3X-1_Set-3, generate
    1,  7829,     1
*Elset, elset=Bottle-Shell-Small-3X-1_Set-3, generate
    1,  7827,     1
*Nset, nset=Bottle-Shell-Small-3X-1_Set-4, generate
    1,  7829,     1
*Elset, elset=Bottle-Shell-Small-3X-1_Set-4, generate
    1,  7827,     1
** Section: HDPE_Shell
*Shell Section, elset=Bottle-Shell-Small-3X-1_Set-4, material=HDPE_generic, offset=0.5
1.0
** ----------------------------------------------------------------
** 
** PART INSTANCE: Part 8 - Rigid-3X-1
** 
*Node, nset=right_grip_nodes
7830, 57.0, 225.15, 166.200003
7831, -39.0, 225.15, 166.200003
7832, -39.0, 225.15, 172.500006
7833, 57.0, 225.15, 172.500006
7834, -39.0, 225.15, 142.799994
7835, 57.0, 225.15, 142.799994
7836, 57.0, 225.15, 135.9
7837, -39.0, 225.15, 135.9
7838, -39.0, 225.15, 160.799994
7839, 57.0, 225.15, 160.799994
7840, 57.0, 225.15, 148.200003
7841, -39.0, 225.15, 148.200003
7842, -39.0, 208.4999999, 172.500006
7843, 57.0, 208.4999999, 172.500006
7844, 42.0, 226.65, 130.199988
7845, 39.5999985, 229.0499996, 132.600012
7846, 60.0, 229.0499996, 132.600012
7847, 43.5, 226.65, 130.199988
7848, 58.5, 226.65, 130.199988
7849, 60.0, 226.65, 130.199988
** ... 10858 like lines cut
*Element, type=S4, elset=right_grip
7828, 7830, 7908, 9643, 8039
7829, 7908, 7909, 9644, 9643
7830, 7909, 7910, 9645, 9644
7831, 7910, 7911, 9646, 9645
7832, 7911, 7912, 9647, 9646
7833, 7912, 7913, 9648, 9647
7834, 7913, 7914, 9649, 9648
7835, 7914, 7915, 9650, 9649
7836, 7915, 7916, 9651, 9650
7837, 7916, 7917, 9652, 9651
7838, 7917, 7918, 9653, 9652
7839, 7918, 7919, 9654, 9653
7840, 7919, 7920, 9655, 9654
7841, 7920, 7921, 9656, 9655
7842, 7921, 7922, 9657, 9656
7843, 7922, 7923, 9658, 9657
7844, 7923, 7924, 9659, 9658
7845, 7924, 7925, 9660, 9659
7846, 7925, 7926, 9661, 9660
7847, 7926, 7927, 9662, 9661
** ... 10783 like lines cut
*Element, type=S3, elset=right_grip
13051, 13797, 13783, 13782
13052, 13788, 13794, 13793
13053, 13796,  9375,  9374
13137, 13838, 13837, 13853
13138, 13848, 13955, 13870
13139, 14070, 13979, 13977
13140, 14227, 14180, 14181
13141, 13957, 13904, 13872
13142, 14389, 13954, 14023
13143, 14368, 14326, 13881
13144, 14366, 14387, 13885
13145, 14127, 14071, 14125
13146, 14399, 14411, 14163
13147, 14199, 14238, 14197
13148, 14156, 14098, 14095
13149, 14132, 14079, 14080
13150, 14145, 14149, 14196
13151, 14254, 14253, 14220
13152, 14341, 14373, 13850
13153, 14323, 14324, 14420
** ... 138 like lines cut
*Node
18708, 12.22, 202.65, 662.699988
18708, 12.22, 202.65, 662.699988
29588, 12.22, 202.65, 662.699988
*Nset, nset="Part 8 - Rigid-3X-1-RefPt_"
18708, 
*Elset, elset="Part 8 - Rigid-3X-1", generate
  7828,  18788,      1
** ----------------------------------------------------------------
** 
** PART INSTANCE: Part 13 - Rigid-3X-1
** 
*Node, nset=left_grip_nodes
18709, -57.0, 180.15, 166.200003
18710, 39.0, 180.15, 166.200003
18711, 39.0, 180.15, 172.500006
18712, -57.0, 180.15, 172.500006
18713, 39.0, 180.15, 142.799994
18714, -57.0, 180.15, 142.799994
18715, -57.0, 180.15, 135.9
18716, 39.0, 180.15, 135.9
18717, 39.0, 180.15, 160.799994
18718, -57.0, 180.15, 160.799994
18719, -57.0, 180.15, 148.200003
18720, 39.0, 180.15, 148.200003
18721, 39.0, 196.8000001, 172.500006
18722, -57.0, 196.8000001, 172.500006
18723, -42.0, 178.65, 130.199988
18724, -39.5999985, 176.2500004, 132.600012
18725, -60.0, 176.2500004, 132.600012
18726, -43.5, 178.65, 130.199988
18727, -58.5, 178.65, 130.199988
18728, -60.0, 178.65, 130.199988
** ... 10858 like lines cut
*Element, type=S4, elset=left_grip
18789, 18709, 18787, 20522, 18918
18790, 18787, 18788, 20523, 20522
18791, 18788, 18789, 20524, 20523
18792, 18789, 18790, 20525, 20524
18793, 18790, 18791, 20526, 20525
18794, 18791, 18792, 20527, 20526
18795, 18792, 18793, 20528, 20527
18796, 18793, 18794, 20529, 20528
18797, 18794, 18795, 20530, 20529
18798, 18795, 18796, 20531, 20530
18799, 18796, 18797, 20532, 20531
18800, 18797, 18798, 20533, 20532
18801, 18798, 18799, 20534, 20533
18802, 18799, 18800, 20535, 20534
18803, 18800, 18801, 20536, 20535
18804, 18801, 18802, 20537, 20536
18805, 18802, 18803, 20538, 20537
18806, 18803, 18804, 20539, 20538
18807, 18804, 18805, 20540, 20539
18808, 18805, 18806, 20541, 20540
** ... 10783 like lines cut
*Element, type=S3, elset=left_grip
24012, 24676, 24662, 24661
24013, 24667, 24673, 24672
24014, 24675, 20254, 20253
24098, 24717, 24716, 24732
24099, 24727, 24834, 24749
24100, 24949, 24858, 24856
24101, 25106, 25059, 25060
24102, 24836, 24783, 24751
24103, 25268, 24833, 24902
24104, 25247, 25205, 24760
24105, 25245, 25266, 24764
24106, 25006, 24950, 25004
24107, 25278, 25290, 25042
24108, 25078, 25117, 25076
24109, 25035, 24977, 24974
24110, 25011, 24958, 24959
24111, 25024, 25028, 25075
24112, 25133, 25132, 25099
24113, 25220, 25252, 24729
24114, 25202, 25203, 25299
** ... 138 like lines cut
*Node
29587, -12.22, 202.65, 662.699988
29587, -12.22, 202.65, 662.699988
29589, -12.22, 202.65, 662.699988
*Nset, nset="Part 13 - Rigid-3X-1-RefPt_"
29587, 
*Elset, elset="Part 13 - Rigid-3X-1", generate
 18789,  29749,      1
*Nset, nset=b_Set-8, generate
  7830,  18707,      1
*Nset, nset=b_Set-8, generate
 18709,  29586,      1
*Elset, elset=b_Set-8, generate
  7828,  18788,      1
*Elset, elset=b_Set-8, generate
 18789,  29749,      1
*Nset, nset=bottle, generate
    1,  7829,     1
*Elset, elset=bottle, generate
    1,  7827,     1
*Nset, nset=bottle_bottom
    1,    2,    3,    4,    5,   35,   36,   37,   38,   39,   40,   41,   42,   43,   44,   45
   46,   47,   48,   49,   50,   51,   52,   53,   54,   55,   56,   57,   58,   59,   60,   61
   62,   63,   64,   65,   66,   67,   68,   69,   70,   71,   72,   73,   74,   75,   76,   77
   78,   79,   80,   81,   82,   83,   84,   85,   86,   87,   88,   89,   90,   91,   92,   93
   94,   95,   96,   97,   98,   99,  100,  101,  102,  103,  104,  105,  106,  107,  108,  109
  110,  111,  112,  113,  114,  115,  116,  117,  118,  119,  120,  121,  122,  123,  124,  125
  126,  127,  128,  194,  195,  196,  197,  198,  199,  200,  201,  202,  203,  204,  205,  206
  207,  208,  209,  210, 1015, 1016, 1017, 1018, 1019, 1020, 1021, 1022, 1023, 1024, 1025, 1026
 1027, 1028, 1029, 1030, 1031, 1032, 1033, 1034, 1035, 1036, 1037, 1038, 1039, 1040, 1041, 1042
 1043, 1044, 1045, 1046, 1047, 1048, 1049, 1050, 1051, 1052, 1053, 1054, 1055, 1056, 1057, 1058
 1059, 1060, 1061, 1062, 1063, 1064, 1065, 1066, 1067, 1068, 1069, 1070, 1071, 1072, 1073, 1074
 1075, 1076, 1077, 1078, 1079, 1080, 1081, 1082, 1083, 1084, 1085, 1086, 1087, 1088, 1089, 1090
 1091, 1092, 1093, 1094, 1095, 1096, 1097, 1098, 1099, 1100, 1101, 1102, 1103, 1104, 1105, 1106
 1107, 1108, 1109, 1110, 1111, 1112, 1113, 1114, 1115, 1116, 1117, 1118, 1119, 1120, 1121, 1122
 1123, 1124, 1125, 1126, 1127, 1128, 1129, 1130, 1131, 1132, 1133, 1134, 1135, 1136, 1137, 1138
 1139, 1140, 1141, 1142, 1143, 1144, 1145, 1146, 1147, 1148, 1149, 1150, 1151, 1152, 1153, 1154
 1155, 1156, 1157, 1158, 1159, 1160, 1161, 1162, 1163, 1164, 1165, 1166, 1167, 1168, 1169, 1170
 1171, 1172, 1173, 1174, 1175, 1176, 1177, 1178, 1179, 1180, 1181, 1182, 1183, 1184, 1185, 1186
 1187, 1188, 1189, 1190, 1191, 1192, 1193, 1194, 1195, 1196, 1197, 1198, 1199, 1200, 1201, 1202
 1203, 1204, 1205, 1206, 1207, 1208, 1209, 1210, 1211, 1212, 1213, 1214, 1215, 1216, 1217, 1218
** ... 14 like lines cut
*Elset, elset=bottle_bottom
    1,    2,    3,    4,    5,    6,    7,    8,    9,   10,   11,   12,   13,   14,   15,   16
   17,   18,   19,   20,   21,   22,   23,   24,   25,   26,   27,   28,   29,   30,   31,   32
   33,   34,   35,   36,   37,   38,   39,   40,   41,   42,   43,   44,   45,   46,   47,   48
   49,   50,   51,   52,   53,   54,   55,   56,   57,   58,   59,   60,   61,   62,   63,   64
   65,   66,   67,   68,   69,   70,   71,   72,   73,   74,   75,   76,   77,   78,   79,   80
   81,   82,   83,   84,   85,   86,   87,   88,   89,   90,   91,   92,   93,   94,   95,   96
   97,   98,   99,  100,  101,  102,  103,  104,  105,  106,  107,  108,  109,  110,  111,  112
  113,  114,  115,  116,  117,  118,  119,  120,  121,  122,  123,  124,  125,  126,  127,  128
  129,  130,  131,  132,  133,  134,  135,  136,  137,  138,  139,  140,  141,  142,  143,  144
  145,  146,  147,  148,  149,  150,  151,  152,  153,  154,  155,  156,  157,  158,  159,  160
  161,  162,  163,  164,  165,  166,  167,  168,  169,  170,  171,  172,  173,  174,  175,  176
  177,  178,  179,  180,  181,  182,  183,  184,  185,  186,  187,  188,  189,  190,  191,  192
  193,  194,  195,  196,  197,  198,  199,  200,  201,  202,  203,  204,  205,  206,  207,  208
  209,  210,  211,  212,  213,  214,  215,  216,  217,  218,  219,  220,  221,  222,  223,  224
  225,  226,  227,  228,  229,  230,  231,  232,  233,  234,  235,  236,  237,  238,  239,  240
  241,  242,  243,  244,  245,  246,  247,  248,  249,  250,  251,  252,  253,  254,  255,  256
  257,  258,  259,  260,  261,  262,  263,  264,  265,  266,  267,  268,  269,  270,  271,  272
  273,  274,  275,  276,  277,  278,  279,  280,  281,  282,  283,  284,  285,  286,  287,  288
  289,  290,  291,  292,  293,  294,  295,  296,  297,  298,  299,  300,  301,  302,  303,  304
  305,  306,  307,  308,  309,  310,  311,  312,  313,  314,  315,  316,  317,  318,  319,  320
** ... 11 like lines cut
*Nset, nset=grips_ref_node
 18708,
*Nset, nset=grips_ref_node
 29587,
*Nset, nset=left-grip_ref_node
 29587,
*Nset, nset=left-grip_rot_node
 29589,
*Nset, nset=grips_rot_node
 29589,
*Nset, nset=left_grip_geometry, generate
 18709,  29587,      1
*Elset, elset=left_grip_geometry, generate
 18789,  29749,      1
*Nset, nset=right-grip_ref_node
 18708,
*Nset, nset=right-grip_rot_node
 29588,
*Nset, nset=grips_rot_node
 29588,
*Nset, nset=right_grip_geometry, generate
  7830,  18708,      1
*Elset, elset=right_grip_geometry, generate
  7828,  18788,      1
*Elset, elset=_Bottle_surface_SPOS, generate
    1,  7827,     1
*Surface, type=ELEMENT, name=Bottle_surface
_Bottle_surface_SPOS, SPOS
*Elset, elset=_Left-grip_SPOS
 24098, 24099, 24100, 24101, 24102, 24103, 24104, 24105, 24106, 24107, 24108, 24109, 24110, 24111, 24112, 24113
 24114, 24115, 24116, 24117, 24118, 24119, 24120, 24121, 24122, 24123, 24124, 24125, 24126, 24127, 24128, 24129
 24130, 24131, 24132, 24133, 24134, 24135, 24136, 24137, 24138, 24139, 24140, 24141, 24142, 24143, 24144, 24145
 24146, 24147, 24148, 24149, 24150, 24151, 24152, 24153, 24154, 24155, 24156, 24157, 24158, 24159, 24160, 24161
 24162, 24163, 24164, 24165, 24166, 24167, 24168, 24169, 24170, 24171, 24172, 24173, 24174, 24175, 24176, 24177
 24178, 24179, 24180, 24181, 24182, 24183, 24184, 24185, 24186, 24187, 24188, 24189, 24190, 24191, 24192, 24193
 24194, 24195, 24196, 24197, 24198, 24199, 24200, 24201, 24202, 24203, 24204, 24205, 24206, 24207, 24208, 24209
 24210, 24211, 24212, 24213, 24214, 24215, 24216, 24217, 24218, 24219, 24220, 24221, 24222, 24223, 24224, 24225
 24226, 24227, 24228, 24229, 24230, 24231, 24232, 24233, 24234, 24235, 24236, 24237, 24238, 24239, 24240, 24241
 24242, 24243, 24244, 24245, 24246, 24247, 24248, 24249, 24250, 24251, 24252, 24253, 24254, 24255, 24256, 24257
 24258, 24259, 24260, 24261, 24262, 24263, 24264, 24265, 24266, 24267, 24268, 24269, 24270, 24271, 24272, 24273
 24274, 24275, 24276, 24277, 24278, 24279, 24280, 24281, 24282, 24283, 24284, 24285, 24286, 24287, 24288, 24289
 24290, 24291, 24292, 24293, 24294, 24295, 24296, 24297, 24298, 24299, 24300, 24301, 24302, 24303, 24304, 24305
 24306, 24307, 24308, 24309, 24310, 24311, 24312, 24313, 24314, 24315, 24316, 24317, 24318, 24319, 24320, 24321
 24322, 24323, 24324, 24325, 24326, 24327, 24328, 24329, 24330, 24331, 24332, 24333, 24334, 24335, 24336, 24337
 24338, 24339, 24340, 24341, 24342, 24343, 24344, 24345, 24346, 24347, 24348, 24349, 24350, 24351, 24352, 24353
 24354, 24355, 24356, 24357, 24358, 24359, 24360, 24361, 24362, 24363, 24364, 24365, 24366, 24367, 24368, 24369
 24370, 24371, 24372, 24373, 24374, 24375, 24376, 24377, 24378, 24379, 24380, 24381, 24382, 24383, 24384, 24385
 24386, 24387, 24388, 24389, 24390, 24391, 24392, 24393, 24394, 24395, 24396, 24397, 24398, 24399, 24400, 24401
 24402, 24403, 24404, 24405, 24406, 24407, 24408, 24409, 24410, 24411, 24412, 24413, 24414, 24415, 24416, 24417
** ... 97 like lines cut
*Surface, type=ELEMENT, name=Left-grip
_Left-grip_SPOS, SPOS
*Elset, elset=_Right-grip_SPOS
 13137, 13138, 13139, 13140, 13141, 13142, 13143, 13144, 13145, 13146, 13147, 13148, 13149, 13150, 13151, 13152
 13153, 13154, 13155, 13156, 13157, 13158, 13159, 13160, 13161, 13162, 13163, 13164, 13165, 13166, 13167, 13168
 13169, 13170, 13171, 13172, 13173, 13174, 13175, 13176, 13177, 13178, 13179, 13180, 13181, 13182, 13183, 13184
 13185, 13186, 13187, 13188, 13189, 13190, 13191, 13192, 13193, 13194, 13195, 13196, 13197, 13198, 13199, 13200
 13201, 13202, 13203, 13204, 13205, 13206, 13207, 13208, 13209, 13210, 13211, 13212, 13213, 13214, 13215, 13216
 13217, 13218, 13219, 13220, 13221, 13222, 13223, 13224, 13225, 13226, 13227, 13228, 13229, 13230, 13231, 13232
 13233, 13234, 13235, 13236, 13237, 13238, 13239, 13240, 13241, 13242, 13243, 13244, 13245, 13246, 13247, 13248
 13249, 13250, 13251, 13252, 13253, 13254, 13255, 13256, 13257, 13258, 13259, 13260, 13261, 13262, 13263, 13264
 13265, 13266, 13267, 13268, 13269, 13270, 13271, 13272, 13273, 13274, 13275, 13276, 13277, 13278, 13279, 13280
 13281, 13282, 13283, 13284, 13285, 13286, 13287, 13288, 13289, 13290, 13291, 13292, 13293, 13294, 13295, 13296
 13297, 13298, 13299, 13300, 13301, 13302, 13303, 13304, 13305, 13306, 13307, 13308, 13309, 13310, 13311, 13312
 13313, 13314, 13315, 13316, 13317, 13318, 13319, 13320, 13321, 13322, 13323, 13324, 13325, 13326, 13327, 13328
 13329, 13330, 13331, 13332, 13333, 13334, 13335, 13336, 13337, 13338, 13339, 13340, 13341, 13342, 13343, 13344
 13345, 13346, 13347, 13348, 13349, 13350, 13351, 13352, 13353, 13354, 13355, 13356, 13357, 13358, 13359, 13360
 13361, 13362, 13363, 13364, 13365, 13366, 13367, 13368, 13369, 13370, 13371, 13372, 13373, 13374, 13375, 13376
 13377, 13378, 13379, 13380, 13381, 13382, 13383, 13384, 13385, 13386, 13387, 13388, 13389, 13390, 13391, 13392
 13393, 13394, 13395, 13396, 13397, 13398, 13399, 13400, 13401, 13402, 13403, 13404, 13405, 13406, 13407, 13408
 13409, 13410, 13411, 13412, 13413, 13414, 13415, 13416, 13417, 13418, 13419, 13420, 13421, 13422, 13423, 13424
 13425, 13426, 13427, 13428, 13429, 13430, 13431, 13432, 13433, 13434, 13435, 13436, 13437, 13438, 13439, 13440
 13441, 13442, 13443, 13444, 13445, 13446, 13447, 13448, 13449, 13450, 13451, 13452, 13453, 13454, 13455, 13456
** ... 97 like lines cut
*Surface, type=ELEMENT, name=Right-grip
_Right-grip_SPOS, SPOS
*Elset, elset=_bottle_bottom_SPOS
    1,    2,    3,    4,    5,    6,    7,    8,    9,   10,   11,   12,   13,   14,   15,   16
   17,   18,   19,   20,   21,   22,   23,   24,   25,   26,   27,   28,   29,   30,   31,   32
   33,   34,   35,   36,   37,   38,   39,   40,   41,   42,   43,   44,   45,   46,   47,   48
   49,   50,   51,   52,   53,   54,   55,   56,   57,   58,   59,   60,   61,   62,   63,   64
   65,   66,   67,   68,   69,   70,   71,   72,   73,   74,   75,   76,   77,   78,   79,   80
   81,   82,   83,   84,   85,   86,   87,   88,   89,   90,   91,   92,   93,   94,   95,   96
   97,   98,   99,  100,  101,  102,  103,  104,  105,  106,  107,  108,  109,  110,  111,  112
  113,  114,  115,  116,  117,  118,  119,  120,  121,  122,  123,  124,  125,  126,  127,  128
  129,  130,  131,  132,  133,  134,  135,  136,  137,  138,  139,  140,  141,  142,  143,  144
  145,  146,  147,  148,  149,  150,  151,  152,  153,  154,  155,  156,  157,  158,  159,  160
  161,  162,  163,  164,  165,  166,  167,  168,  169,  170,  171,  172,  173,  174,  175,  176
  177,  178,  179,  180,  181,  182,  183,  184,  185,  186,  187,  188,  189,  190,  191,  192
  193,  194,  195,  196,  197,  198,  199,  200,  201,  202,  203,  204,  205,  206,  207,  208
  209,  210,  211,  212,  213,  214,  215,  216,  217,  218,  219,  220,  221,  222,  223,  224
  225,  226,  227,  228,  229,  230,  231,  232,  233,  234,  235,  236,  237,  238,  239,  240
  241,  242,  243,  244,  245,  246,  247,  248,  249,  250,  251,  252,  253,  254,  255,  256
  257,  258,  259,  260,  261,  262,  263,  264,  265,  266,  267,  268,  269,  270,  271,  272
  273,  274,  275,  276,  277,  278,  279,  280,  281,  282,  283,  284,  285,  286,  287,  288
  289,  290,  291,  292,  293,  294,  295,  296,  297,  298,  299,  300,  301,  302,  303,  304
  305,  306,  307,  308,  309,  310,  311,  312,  313,  314,  315,  316,  317,  318,  319,  320
** ... 30 like lines cut
*Surface, type=ELEMENT, name=bottle_bottom
_bottle_bottom_SPOS, SPOS
*Rigid Body, nset=left_grip_nodes, ref node=18708, rot node=29588
*Shell Section, elset="Part 8 - Rigid-3X-1", material=HDPE_generic, offset=0.5
1.0
*Rigid Body, nset=right_grip_nodes, ref node=29587, rot node=29589
*Shell Section, elset="Part 13 - Rigid-3X-1", material=HDPE_generic, offset=0.5
1.0
***Amplitude, name=shake_1_sinusoid, definition=PERIODIC
**1,           62.83,              0.,              0.
**             0.,              1.
***Amplitude, name=shake_2_sinusoids, definition=PERIODIC
**2,           62.83,              0.,              0.
**             0.,              1.,              0.,              1.
***Amplitude, name=vel_smooth_step, definition=SMOOTH STEP
**             0.,              0.,             0.1,              1.,             0.9,              1.,              1.,              0.
*Material, name=HDPE_generic
*Density
 1.94e-08
*Elastic
1000., 0.45
*Plastic
  8.618,    0.
 13.064, 0.007
 16.787, 0.025
 18.476, 0.044
 20.337, 0.081
 24.543,  0.28
 26.887,  0.59
** 
** INTERACTION PROPERTIES
** 
*Surface Interaction, name=exp_fric
*Friction
 0.5, 2000
*Surface Behavior, pressure-overclosure=EXPONENTIAL
1.5351e-7,6.66666
** 
** BOUNDARY CONDITIONS
** 
** Name: bottle_fixed Type: Displacement/Rotation
*Boundary
bottle_bottom, 1, 1
bottle_bottom, 2, 2
bottle_bottom, 3, 3
** Name: left_grip_squeeze Type: Displacement/Rotation
*Boundary
left-grip_ref_node, 1, 3
left-grip_rot_node, 1, 3
** Name: right_grip_squeeze Type: Displacement/Rotation
*Boundary
right-grip_ref_node, 1, 3
right-grip_rot_node, 1, 3
** 
** INTERACTIONS
** 
** Interaction: left_grip_to_bottle
*Contact Pair, interaction=exp_fric
Bottle_surface, Left-grip
** Interaction: right_grip_to_bottle
*Contact Pair, interaction=exp_fric
Bottle_surface, Right-grip
** ----------------------------------------------------------------
** 
** STEP: gripper_translate
** 
*Step, nlgeom=YES, inc=1000
*Static
1, 1
** 
** BOUNDARY CONDITIONS
** 
*Boundary
grips_ref_node, 2, 2, -150.
grips_ref_node, 3, 3, -99.
** 
** LOADS
** 
** Name: gravitational_load   Type: Gravity
*Dload
bottle, GRAV, 9810., 0., -1., 0.
** 
** OUTPUT REQUESTS
** 
** FIELD OUTPUT: F-Output-1
** 
*Node Output
U,  
*Element Output
S, E
*End Step
** ----------------------------------------------------------------
** 
** STEP: squeeze
** 
*Step, nlgeom=YES, inc=1000
*Static
0.05, 1., 1e-05, 1.
** 
** BOUNDARY CONDITIONS
** 
*Boundary
left-grip_ref_node, 1, 1, 12.22
*Boundary
right-grip_ref_node, 1, 1, -12.22
** 
** OUTPUT REQUESTS
** 
*Node Output
U, 
*Element Output
S, E
*Contact Output, nset=bottle
CDIS, CSTR
*End Step
