*HEADING
ABAQUS job created on 24-Feb-16 at 07:50:40
**
*NODE, NSET=NALL
    2602,          -0.5,           0.5,           0.1
    2603,          -0.5,          0.25,           0.1
    2604,          -0.5,   -1.49012E-8,           0.1
    2605,          -0.5,         -0.25,           0.1
    2606,          -0.5,          -0.5,           0.1
    2607,         -0.25,           0.5,           0.1
    2608,         -0.25,          0.25,           0.1
    2609,         -0.25,   -1.49012E-8,           0.1
    2610,         -0.25,         -0.25,           0.1
    2611,         -0.25,          -0.5,           0.1
    2612,            0.,           0.5,           0.1
    2613,            0.,          0.25,           0.1
    2614,            0.,   -1.49012E-8,           0.1
    2615,            0.,         -0.25,           0.1
    2616,            0.,          -0.5,           0.1
    2617,          0.25,           0.5,           0.1
    2618,          0.25,          0.25,           0.1
    2619,          0.25,   -1.49012E-8,           0.1
    2620,          0.25,         -0.25,           0.1
    2621,          0.25,          -0.5,           0.1
** ... 5257 like lines cut
**
**
*ELEMENT, TYPE=C3D8
    2501,    2602,    2603,    2608,    2607,    2627,    2628,
    2633,    2632
    2502,    2603,    2604,    2609,    2608,    2628,    2629,
    2634,    2633
    2503,    2604,    2605,    2610,    2609,    2629,    2630,
    2635,    2634
    2504,    2605,    2606,    2611,    2610,    2630,    2631,
    2636,    2635
    2505,    2607,    2608,    2613,    2612,    2632,    2633,
    2638,    2637
    2506,    2608,    2609,    2614,    2613,    2633,    2634,
    2639,    2638
    2507,    2609,    2610,    2615,    2614,    2634,    2635,
    2640,    2639
    2508,    2610,    2611,    2616,    2615,    2635,    2636,
    2641,    2640
    2509,    2612,    2613,    2618,    2617,    2637,    2638,
    2643,    2642
    2510,    2613,    2614,    2619,    2618,    2638,    2639,
    2644,    2643
** ... 5044 like lines cut
**
** E_PLATE
**
*ELSET, ELSET=E_PLATE, GENERATE
    2533,    5032,       1
**
** E_PUCK
**
*ELSET, ELSET=E_PUCK, GENERATE
    2501,    2532,       1
**
** N_PLATE
**
*NSET, NSET=N_PLATE, GENERATE
    2677,    7878,       1
**
** N_PUCK
**
*NSET, NSET=N_PUCK, GENERATE
    2602,    2676,       1
**
**
*****************************************************
*SOLID SECTION, ELSET=E_PUCK, MATERIAL=AL1
*SOLID SECTION, ELSET=E_PLATE, MATERIAL=AL
**
** Al
** Date: 24-Feb-16           Time: 07:47:23
**
*MATERIAL, NAME=AL
**
*DENSITY
    0.000259,
**
*ELASTIC, TYPE=ISO
1.E+7,         0.3
*PLASTIC
60000.,0.
65000.,1.0
**
** Al1
** Date: 24-Feb-16           Time: 07:47:23
**
*MATERIAL, NAME=AL1
**
*DENSITY
    0.000259,
**
*ELASTIC, TYPE=ISO
       1.E+7,         0.3
**
** PINNED
**
*BOUNDARY, OP=NEW
PINNED, 1,3
**
** VEL
**
*INITIAL CONDITIONS, TYPE=VELOCITY
VEL, 3,        -10.
**
** CON_1
**
***SURFACE, TYPE=ELEMENT, NAME=UPPER_SURFACE_PUCK
**    2517, S2
**    2518, S2
**    2519, S2
**    2520, S2
**    2521, S2
**    2522, S2
**    2523, S2
**    2524, S2
**    2525, S2
**    2526, S2
**    2527, S2
**    2528, S2
**    2529, S2
**    2530, S2
**    2531, S2
**    2532, S2
*SURFACE, TYPE=ELEMENT, NAME=M_CON_1_0
    2501, S1
    2502, S1
    2503, S1
    2504, S1
    2505, S1
    2506, S1
    2507, S1
    2508, S1
    2509, S1
    2510, S1
    2511, S1
    2512, S1
    2513, S1
    2514, S1
    2515, S1
    2516, S1
*SURFACE, TYPE=ELEMENT, NAME=S_CON_1_0
    2533, S2
    2534, S2
    2535, S2
    2536, S2
    2537, S2
    2538, S2
    2539, S2
    2540, S2
    2541, S2
    2542, S2
    2543, S2
    2544, S2
    2545, S2
    2546, S2
    2547, S2
    2548, S2
    2549, S2
    2550, S2
    2551, S2
    2552, S2
** ... 2480 like lines cut
*NSET, NSET=PINNED, GENERATE
    2677,    2728,       1
    2778,    2779,       1
    2829,    2830,       1
    2880,    2881,       1
    2931,    2932,       1
    2982,    2983,       1
    3033,    3034,       1
    3084,    3085,       1
    3135,    3136,       1
    3186,    3187,       1
    3237,    3238,       1
    3288,    3289,       1
    3339,    3340,       1
    3390,    3391,       1
    3441,    3442,       1
    3492,    3493,       1
    3543,    3544,       1
    3594,    3595,       1
    3645,    3646,       1
    3696,    3697,       1
** ... 30 like lines cut
*NSET, NSET=VEL, GENERATE
    2602,    2676,       1