*NODE, NSET=Nall
1, -15.0, 230.0, -10.0
3, -15.0, 240.0, -10.0
5, -15.0, 250.0, -10.0
7, -5.0, 230.0, -10.0
9, -5.0, 240.0, -10.0
11, -5.0, 250.0, -10.0
13, 5.0, 230.0, -10.0
15, 5.0, 240.0, -10.0
17, 5.0, 250.0, -10.0
14, 5.0, 230.0, 0.0
16, 5.0, 240.0, 0.0
18, 5.0, 250.0, 0.0
8, -5.0, 230.0, 0.0
10, -5.0, 240.0, 0.0
12, -5.0, 250.0, 0.0
2, -15.0, 230.0, 0.0
4, -15.0, 240.0, 0.0
6, -15.0, 250.0, 0.0
*ELEMENT, TYPE=B31R, ELSET=BARS
1, 1,  3
2, 1,  7
3, 1,  2
4, 3,  1
5, 3,  5
6, 3,  7
7, 3,  9
8, 3,  11
9, 3,  13
10, 3,  15
11, 3,  17
12, 3,  16
13, 3,  8
14, 3,  10
15, 3,  12
16, 3,  2
17, 3,  4
18, 3,  6
19, 5,  1
20, 5,  3
** ... 188 like lines cut
*MATERIAL,NAME=Steel
*ELASTIC
4176000,.3
*BEAM SECTION,ELSET=BARS,MATERIAL=Steel,SECTION=RECT
0.5, 0.2
-0.15433221,-0.832050294337844,0.554700196225229
*BOUNDARY
5, 1, 3
11, 1, 3
17, 1, 3
18, 1, 3
12, 1, 3
6, 1, 3
*STEP
*STATIC
*CLOAD
1,2,1.0
*NODE PRINT,NSET=Nall
U
*EL PRINT,ELSET=BARS
S, E
*NODE FILE, output=3D
U, RF
*EL FILE
S, E
*END STEP