
*HEADING
Model: solid_initial_condition_tube

*NODE, NSET=Nall
       1,-1.000000000000e+002,1.732050807569e+002,0.000000000000e+000
       2,-7.092097740851e+001,1.870032485371e+002,0.000000000000e+000
       3,-7.092097740851e+001,1.870032485371e+002,2.500000000000e+001
       4,-1.000000000000e+002,1.732050807569e+002,2.500000000000e+001
       5,-8.750000000000e+001,1.515544456623e+002,0.000000000000e+000
       6,-6.205585523244e+001,1.636278424699e+002,0.000000000000e+000
       7,-6.205585523244e+001,1.636278424699e+002,2.500000000000e+001
       8,-8.750000000000e+001,1.515544456623e+002,2.500000000000e+001
       9,-7.092097740851e+001,1.870032485371e+002,5.000000000000e+001
      10,-1.000000000000e+002,1.732050807569e+002,5.000000000000e+001
      11,-6.205585523244e+001,1.636278424699e+002,5.000000000000e+001
      12,-8.750000000000e+001,1.515544456623e+002,5.000000000000e+001
      13,-7.092097740851e+001,1.870032485371e+002,7.500000000000e+001
      14,-1.000000000000e+002,1.732050807569e+002,7.500000000000e+001
      15,-6.205585523244e+001,1.636278424699e+002,7.500000000000e+001
      16,-8.750000000000e+001,1.515544456623e+002,7.500000000000e+001
      17,-7.500000000000e+001,1.299038105677e+002,0.000000000000e+000
      18,-5.319073305638e+001,1.402524364028e+002,0.000000000000e+000
      19,-5.319073305638e+001,1.402524364028e+002,2.500000000000e+001
      20,-7.500000000000e+001,1.299038105677e+002,2.500000000000e+001
** ... 760 like lines cut
*ELEMENT, TYPE=C3D8, ELSET=Eall
     1,     1,     2,     3,     4,     5,     6,     7,     8
     2,     4,     3,     9,    10,     8,     7,    11,    12
     3,    10,     9,    13,    14,    12,    11,    15,    16
     4,     5,     6,     7,     8,    17,    18,    19,    20
     5,     8,     7,    11,    12,    20,    19,    21,    22
     6,    12,    11,    15,    16,    22,    21,    23,    24
     7,    17,    18,    19,    20,    25,    26,    27,    28
     8,    20,    19,    21,    22,    28,    27,    29,    30
     9,    22,    21,    23,    24,    30,    29,    31,    32
    10,    25,    26,    27,    28,    33,    34,    35,    36
    11,    28,    27,    29,    30,    36,    35,    37,    38
    12,    30,    29,    31,    32,    38,    37,    39,    40
    13,     2,    41,    42,     3,     6,    43,    44,     7
    14,     3,    42,    45,     9,     7,    44,    46,    11
    15,     9,    45,    47,    13,    11,    46,    48,    15
    16,     6,    43,    44,     7,    18,    49,    50,    19
    17,     7,    44,    46,    11,    19,    50,    51,    21
    18,    11,    46,    48,    15,    21,    51,    52,    23
    19,    18,    49,    50,    19,    26,    53,    54,    27
    20,    19,    50,    51,    21,    27,    54,    55,    29
** ... 448 like lines cut
** Names based on nout
*NSET,NSET=Nnout 
1, 
2, 
3, 
4, 
9, 
10, 
13, 
14, 
41, 
42, 
45, 
47, 
61, 
62, 
65, 
67, 
81, 
82, 
85, 
87, 
** ... 136 like lines cut

** Names based on nmid
*NSET,NSET=Nnmid 
17, 
18, 
19, 
20, 
21, 
22, 
23, 
24, 
49, 
50, 
51, 
52, 
69, 
70, 
71, 
72, 
89, 
90, 
91, 
92, 
** ... 136 like lines cut
** Names based on nins
*NSET,NSET=Nnins 
33, 
34, 
35, 
36, 
37, 
38, 
39, 
40, 
57, 
58, 
59, 
60, 
77, 
78, 
79, 
80, 
97, 
98, 
99, 
100, 
** ... 136 like lines cut
** Names based on sbound_01
*NSET,NSET=Nsbound_01 
1, 
2, 
5, 
6, 
17, 
18, 
25, 
26, 
33, 
34, 
41, 
43, 
49, 
53, 
57, 
61, 
63, 
69, 
73, 
77, 
** ... 175 like lines cut
** Names based on sbound_02
*NSET,NSET=Nsbound_02 
13, 
14, 
15, 
16, 
23, 
24, 
31, 
32, 
39, 
40, 
47, 
48, 
52, 
56, 
60, 
67, 
68, 
72, 
76, 
80, 
** ... 175 like lines cut

*TRANSFORM,TYPE=C,NSET=Nall
0,0,0,0,0,1

*ORIENTATION,NAME=OR1,SYSTEM=CYLINDRICAL
0.,0.,0.,0.,0.,1.0

*MATERIAL, Name=steel-el

*ELASTIC
210000,0.3

*DENSITY
7.85E-9

*EXPANSION,ZERO=0
12.E-6,0

*SOLID SECTION, Elset=Eall, Material=steel-el

*STEP

*STATIC

*BOUNDARY
Nall,2,3,0

*INITIAL CONDITIONS,TYPE=TEMPERATURE
Nall,0

*TEMPERATURE
Nnout, 500
Nnins, 500

*NODE FILE,GLOBAL=NO 
U

*EL FILE
S

*END STEP