*Node,nset=Nall
      1,  1744.43188,   896.24939,      1587.5
      2,  1748.89124,  887.516113,      1587.5
      3,  1783.49097,  905.074524,      1587.5
      4,  1778.94336,  913.980652,      1587.5
      5,  1809.80933,  755.576355,      1587.5
      6,  1845.61426,  770.524536,      1587.5
      7,  1813.56458,  746.517883,      1587.5
      8,  1849.44385,  761.286865,      1587.5
      9,  1855.10791,  636.301941,      1587.5
     10,  1858.26624,  627.018494,      1587.5
     11,  1895.02979,  639.423279,      1587.5
     12,  1891.80896,  648.890381,      1587.5
     13,  1899.59448,  487.694824,      1587.5
     14,  1937.17566,  497.343262,      1587.5
     15,  1902.00916,  478.190796,      1587.5
     16,  1939.63818,  487.651215,      1587.5
     17,  1927.28516,  363.149353,      1587.5
     18,  1929.07678,  353.508423,      1587.5
     19,  1967.24121,  360.502167,      1587.5
     20,  1965.41418,  370.333832,      1587.5
** ... 16963 like lines cut
*Element,type=S8R, elset=Eall
     1,     1,     2,   619,   620,  5629,  5630,  5631,  5632
     2,   620,   619,     3,     4,  5631,  5633,  5634,  5635
     3,     2,   621,  3736,   619,  5636,  5637,  5638,  5630
     4,   621,   622,  3737,  3736,  5639,  5640,  5641,  5637
     5,   622,   623,  3738,  3737,  5642,  5643,  5644,  5640
     6,   623,   624,  3739,  3738,  5645,  5646,  5647,  5643
     7,   624,   625,  3740,  3739,  5648,  5649,  5650,  5646
     8,   625,     5,   626,  3740,  5651,  5652,  5653,  5649
     9,   619,  3736,   631,     3,  5638,  5654,  5655,  5633
    10,  3736,  3737,   630,   631,  5641,  5656,  5657,  5654
    11,  3737,  3738,   629,   630,  5644,  5658,  5659,  5656
    12,  3738,  3739,   628,   629,  5647,  5660,  5661,  5658
    13,  3739,  3740,   627,   628,  5650,  5662,  5663,  5660
    14,  3740,   626,     6,   627,  5653,  5664,  5665,  5662
    15,     5,     7,   632,   626,  5666,  5667,  5668,  5652
    16,   626,   632,     8,     6,  5668,  5669,  5670,  5664
    17,     9,    10,   633,   634,  5671,  5672,  5673,  5674
    18,   634,   633,    11,    12,  5673,  5675,  5676,  5677
    19,    10,   635,  3741,   633,  5678,  5679,  5680,  5672
    20,   635,   636,  3742,  3741,  5681,  5682,  5683,  5679
** ... 5692 like lines cut
*Nset,nset=panel0_Omegafoot
4, 8, 12, 16, 20, 24, 28, 36, 40, 44, 48, 52, 56, 60, 68, 72
76, 80, 84, 88, 92, 101, 102, 104, 108, 109, 111, 115, 116, 118, 124, 125
128, 130, 132, 135, 136, 139, 140, 142, 144, 146, 149, 151, 152, 155, 156, 159
161, 163, 165, 169, 170, 173, 174, 175, 177, 179, 181, 185, 186, 189, 191, 193
196, 197, 200, 201, 203, 205, 207, 210, 212, 213, 418, 419, 420, 421, 423, 428
429, 430, 431, 433, 438, 439, 440, 441, 442, 444, 449, 450, 451, 452, 457, 459
460, 461, 464, 465, 468, 469, 472, 473, 476, 477, 478, 481, 482, 485, 486, 489
490, 493, 494, 495, 498, 499, 502, 503, 506, 507, 510, 511, 514, 515, 518, 519
522, 523, 526, 527, 528, 531, 532, 535, 536, 539, 540, 543, 544, 545, 548, 549
552, 553, 554, 557, 560, 561, 562, 565, 566, 569, 570, 573, 574, 575, 577, 580
581, 584, 585, 588, 589, 592, 593, 595, 596, 597, 598, 603, 604, 607, 610, 611
806, 808, 856, 858, 906, 908, 943, 944, 945, 946, 947, 948, 949, 950, 951, 952
974, 976, 978, 980, 991, 992, 993, 994, 995, 996, 997, 998, 999, 1000, 1011, 1012
1013, 1014, 1015, 1016, 1017, 1018, 1019, 1020, 1042, 1043, 1044, 1045, 1046, 1047, 1048, 1049
1050, 1051, 1052, 1053, 1054, 1055, 1056, 1057, 1058, 1059, 1060, 1061, 1062, 1095, 1103, 1105
1107, 1115, 1117, 1139, 1140, 1141, 1142, 1143, 1144, 1145, 1146, 1147, 1148, 1149, 1150, 1151
1152, 1153, 1154, 1155, 1156, 1157, 1158, 1159, 1181, 1182, 1183, 1184, 1185, 1186, 1187, 1188
1189, 1190, 1191, 1192, 1193, 1194, 1195, 1196, 1197, 1198, 1199, 1200, 1201, 1212, 1213, 1214
1215, 1216, 1217, 1218, 1219, 1220, 1221, 1243, 1245, 1247, 1249, 1271, 1272, 1273, 1274, 1275
1276, 1277, 1278, 1279, 1280, 1281, 1282, 1283, 1284, 1285, 1286, 1287, 1288, 1289, 1290, 1291
** ... 177 like lines cut

*Nset,nset=panel0_Omega1
419, 420, 422, 423, 424, 425, 426, 427, 428, 429, 430, 431, 432, 433, 434, 435
436, 437, 438, 439, 441, 442, 443, 444, 445, 446, 447, 448, 449, 450, 451, 452
453, 454, 455, 456, 457, 458, 459, 460, 461, 462, 463, 464, 465, 466, 467, 468
469, 470, 471, 472, 473, 474, 475, 476, 478, 479, 480, 481, 482, 483, 484, 485
486, 487, 488, 489, 490, 491, 492, 493, 495, 496, 497, 498, 499, 500, 501, 502
503, 504, 505, 506, 507, 508, 509, 510, 511, 512, 513, 514, 515, 516, 517, 518
519, 520, 521, 522, 523, 524, 525, 526, 528, 529, 530, 531, 532, 533, 534, 535
536, 537, 538, 539, 540, 541, 542, 543, 545, 546, 547, 548, 549, 550, 551, 552
554, 555, 556, 557, 558, 559, 560, 561, 562, 563, 564, 565, 566, 567, 568, 569
570, 571, 572, 573, 574, 575, 576, 577, 578, 579, 581, 582, 583, 584, 585, 586
587, 588, 589, 590, 591, 592, 593, 594, 596, 598, 607, 610, 612, 613, 616, 618
2186, 2187, 2188, 2189, 2190, 2191, 2192, 2193, 2194, 2195, 2206, 2207, 2208, 2209, 2210, 2211
2212, 2213, 2214, 2215, 2216, 2217, 2218, 2219, 2220, 2221, 2222, 2223, 2224, 2225, 2226, 2227
2230, 2231, 2232, 2233, 2234, 2235, 2236, 2237, 2238, 2239, 2242, 2243, 2244, 2245, 2246, 2247
2248, 2249, 2250, 2251, 2252, 2253, 2254, 2255, 2256, 2257, 2258, 2259, 2260, 2261, 2262, 2263
2264, 2265, 2266, 2267, 2268, 2269, 2270, 2271, 2272, 2273, 2276, 2277, 2278, 2279, 2280, 2281
2282, 2283, 2284, 2285, 2298, 2299, 2300, 2301, 2302, 2303, 2304, 2305, 2306, 2307, 2308, 2309
2310, 2311, 2312, 2313, 2314, 2315, 2316, 2317, 2318, 2319, 2320, 2321, 2322, 2323, 2324, 2325
2326, 2327, 2328, 2329, 2332, 2333, 2334, 2335, 2336, 2337, 2338, 2339, 2340, 2341, 2344, 2345
2346, 2347, 2348, 2349, 2350, 2351, 2352, 2353, 2354, 2355, 2356, 2357, 2358, 2359, 2360, 2361
** ... 197 like lines cut

*Nset,nset=panel0_OmegaAll
4, 8, 12, 16, 20, 24, 28, 36, 40, 44, 48, 52, 56, 60, 68, 72
76, 80, 84, 88, 92, 101, 102, 104, 108, 109, 111, 115, 116, 118, 124, 125
128, 130, 132, 135, 136, 139, 140, 142, 144, 146, 149, 151, 152, 155, 156, 159
161, 163, 165, 169, 170, 173, 174, 175, 177, 179, 181, 185, 186, 189, 191, 193
196, 197, 200, 201, 203, 205, 207, 210, 212, 213, 418, 419, 420, 421, 422, 423
424, 425, 426, 427, 428, 429, 430, 431, 432, 433, 434, 435, 436, 437, 438, 439
440, 441, 442, 443, 444, 445, 446, 447, 448, 449, 450, 451, 452, 453, 454, 455
456, 457, 458, 459, 460, 461, 462, 463, 464, 465, 466, 467, 468, 469, 470, 471
472, 473, 474, 475, 476, 477, 478, 479, 480, 481, 482, 483, 484, 485, 486, 487
488, 489, 490, 491, 492, 493, 494, 495, 496, 497, 498, 499, 500, 501, 502, 503
504, 505, 506, 507, 508, 509, 510, 511, 512, 513, 514, 515, 516, 517, 518, 519
520, 521, 522, 523, 524, 525, 526, 527, 528, 529, 530, 531, 532, 533, 534, 535
536, 537, 538, 539, 540, 541, 542, 543, 544, 545, 546, 547, 548, 549, 550, 551
552, 553, 554, 555, 556, 557, 558, 559, 560, 561, 562, 563, 564, 565, 566, 567
568, 569, 570, 571, 572, 573, 574, 575, 576, 577, 578, 579, 580, 581, 582, 583
584, 585, 586, 587, 588, 589, 590, 591, 592, 593, 594, 595, 596, 597, 598, 603
604, 607, 610, 611, 612, 613, 616, 618, 806, 808, 856, 858, 906, 908, 943, 944
945, 946, 947, 948, 949, 950, 951, 952, 974, 976, 978, 980, 991, 992, 993, 994
995, 996, 997, 998, 999, 1000, 1011, 1012, 1013, 1014, 1015, 1016, 1017, 1018, 1019, 1020
1042, 1043, 1044, 1045, 1046, 1047, 1048, 1049, 1050, 1051, 1052, 1053, 1054, 1055, 1056, 1057
** ... 315 like lines cut

*Nset,nset=panel0_Framefoot
3, 4, 6, 8, 11, 12, 14, 16, 19, 20, 22, 24, 27, 28, 31, 32
35, 36, 38, 40, 43, 44, 46, 48, 51, 52, 54, 56, 59, 60, 63, 64
67, 68, 70, 72, 75, 76, 78, 80, 83, 84, 86, 88, 91, 92, 95, 96
98, 99, 101, 102, 103, 104, 105, 106, 107, 108, 109, 110, 111, 112, 113, 114
115, 116, 117, 118, 121, 123, 124, 127, 128, 129, 130, 131, 132, 133, 136, 138
139, 141, 142, 143, 144, 145, 146, 147, 148, 149, 150, 151, 152, 154, 155, 158
159, 160, 161, 162, 163, 164, 165, 166, 167, 170, 172, 173, 175, 176, 177, 178
179, 180, 181, 182, 184, 185, 188, 189, 190, 191, 192, 193, 194, 197, 199, 200
202, 203, 204, 205, 206, 207, 208, 209, 210, 211, 212, 213, 418, 477, 494, 527
544, 553, 580, 599, 600, 601, 605, 608, 609, 627, 628, 629, 630, 631, 641, 642
643, 644, 645, 655, 656, 657, 658, 659, 664, 665, 670, 671, 681, 682, 683, 684
685, 695, 696, 697, 698, 699, 709, 710, 711, 712, 713, 718, 719, 724, 725, 735
736, 737, 738, 739, 749, 750, 751, 752, 753, 763, 764, 765, 766, 767, 772, 773
778, 779, 791, 792, 805, 806, 807, 808, 830, 831, 853, 854, 855, 856, 857, 858
880, 881, 903, 904, 905, 906, 907, 908, 931, 932, 963, 964, 965, 966, 967, 973
974, 975, 976, 977, 978, 979, 980, 1084, 1085, 1086, 1087, 1088, 1089, 1090, 1091, 1092
1093, 1094, 1095, 1096, 1097, 1098, 1099, 1100, 1101, 1102, 1103, 1104, 1105, 1106, 1107, 1108
1109, 1110, 1111, 1112, 1113, 1114, 1115, 1116, 1117, 1232, 1233, 1234, 1235, 1236, 1242, 1243
1244, 1245, 1246, 1247, 1248, 1249, 1313, 1314, 1315, 1316, 1317, 1318, 1319, 1320, 1321, 1322
1363, 1364, 1365, 1366, 1367, 1368, 1369, 1370, 1371, 1372, 1373, 1374, 1375, 1376, 1377, 1378
** ... 70 like lines cut

*Nset,nset=panel0_Frame1
1, 2, 3, 4, 5, 6, 7, 8, 9, 10, 11, 12, 13, 14, 15, 16
17, 18, 19, 20, 21, 22, 23, 24, 25, 26, 27, 28, 29, 30, 31, 32
33, 34, 35, 36, 37, 38, 39, 40, 41, 42, 43, 44, 45, 46, 47, 48
49, 50, 51, 52, 53, 54, 55, 56, 57, 58, 59, 60, 61, 62, 63, 64
65, 66, 67, 68, 69, 70, 71, 72, 73, 74, 75, 76, 77, 78, 79, 80
81, 82, 83, 84, 85, 86, 87, 88, 89, 90, 91, 92, 93, 94, 95, 96
101, 108, 115, 214, 215, 216, 217, 218, 219, 220, 221, 222, 223, 224, 225, 226
227, 228, 229, 230, 231, 232, 233, 234, 235, 236, 237, 238, 239, 240, 241, 242
243, 244, 245, 246, 247, 248, 249, 250, 251, 252, 253, 254, 255, 256, 257, 258
259, 260, 261, 262, 263, 264, 265, 266, 267, 268, 269, 270, 271, 272, 273, 274
275, 276, 277, 278, 279, 280, 281, 282, 283, 284, 285, 286, 287, 288, 289, 290
291, 292, 293, 294, 295, 296, 297, 298, 299, 300, 301, 302, 303, 304, 305, 306
307, 308, 309, 310, 311, 312, 313, 314, 315, 316, 317, 318, 319, 320, 321, 322
323, 324, 325, 326, 327, 328, 329, 330, 331, 332, 333, 334, 335, 336, 337, 338
339, 340, 341, 342, 343, 344, 345, 346, 347, 348, 349, 350, 351, 352, 353, 354
355, 356, 357, 358, 359, 360, 361, 362, 363, 364, 365, 366, 367, 368, 369, 370
371, 372, 373, 374, 375, 376, 377, 378, 379, 380, 381, 382, 383, 384, 385, 386
387, 388, 389, 390, 391, 392, 393, 394, 395, 396, 397, 398, 399, 400, 401, 402
403, 404, 405, 406, 407, 408, 409, 410, 411, 412, 413, 414, 415, 416, 417, 614
615, 617, 619, 620, 621, 622, 623, 624, 625, 626, 627, 628, 629, 630, 631, 632
** ... 155 like lines cut

*Nset,nset=panel0_Cut_Skin_Sets
97, 98, 99, 100, 102, 103, 104, 105, 106, 107, 109, 110, 111, 112, 113, 114
116, 117, 118, 119, 120, 121, 122, 123, 124, 125, 126, 127, 128, 129, 130, 131
132, 133, 134, 135, 136, 137, 138, 139, 140, 141, 142, 143, 144, 145, 146, 147
148, 149, 150, 151, 152, 153, 154, 155, 156, 157, 158, 159, 160, 161, 162, 163
164, 165, 166, 167, 168, 169, 170, 171, 172, 173, 174, 175, 176, 177, 178, 179
180, 181, 182, 183, 184, 185, 186, 187, 188, 189, 190, 191, 192, 193, 194, 195
196, 197, 198, 199, 200, 201, 202, 203, 204, 205, 206, 207, 208, 209, 210, 211
212, 213, 418, 419, 420, 421, 423, 428, 429, 430, 431, 433, 438, 439, 440, 441
442, 444, 449, 450, 451, 452, 457, 459, 460, 461, 464, 465, 468, 469, 472, 473
476, 477, 478, 481, 482, 485, 486, 489, 490, 493, 494, 495, 498, 499, 502, 503
506, 507, 510, 511, 514, 515, 518, 519, 522, 523, 526, 527, 528, 531, 532, 535
536, 539, 540, 543, 544, 545, 548, 549, 552, 553, 554, 557, 560, 561, 562, 565
566, 569, 570, 573, 574, 575, 577, 580, 581, 584, 585, 588, 589, 592, 593, 595
596, 597, 598, 599, 600, 601, 602, 603, 604, 605, 606, 607, 608, 609, 610, 611
781, 782, 783, 784, 785, 786, 787, 788, 789, 790, 791, 792, 793, 794, 795, 796
797, 798, 799, 800, 801, 802, 803, 804, 809, 810, 811, 812, 813, 814, 815, 816
817, 818, 819, 820, 821, 822, 823, 824, 825, 826, 827, 828, 829, 830, 831, 832
833, 834, 835, 836, 837, 838, 839, 840, 841, 842, 843, 844, 845, 846, 847, 848
849, 850, 851, 852, 853, 854, 859, 860, 861, 862, 863, 864, 865, 866, 867, 868
869, 870, 871, 872, 873, 874, 875, 876, 877, 878, 879, 880, 881, 882, 883, 884
** ... 638 like lines cut

*Nset,nset=panel0_Skin_Faces
3, 4, 6, 8, 11, 12, 14, 16, 19, 20, 22, 24, 27, 28, 31, 32
35, 36, 38, 40, 43, 44, 46, 48, 51, 52, 54, 56, 59, 60, 63, 64
67, 68, 70, 72, 75, 76, 78, 80, 83, 84, 86, 88, 91, 92, 95, 96
97, 98, 99, 100, 101, 102, 103, 104, 105, 106, 107, 108, 109, 110, 111, 112
113, 114, 115, 116, 117, 118, 119, 120, 121, 122, 123, 124, 125, 126, 127, 128
129, 130, 131, 132, 133, 134, 135, 136, 137, 138, 139, 140, 141, 142, 143, 144
145, 146, 147, 148, 149, 150, 151, 152, 153, 154, 155, 156, 157, 158, 159, 160
161, 162, 163, 164, 165, 166, 167, 168, 169, 170, 171, 172, 173, 174, 175, 176
177, 178, 179, 180, 181, 182, 183, 184, 185, 186, 187, 188, 189, 190, 191, 192
193, 194, 195, 196, 197, 198, 199, 200, 201, 202, 203, 204, 205, 206, 207, 208
209, 210, 211, 212, 213, 418, 419, 420, 421, 423, 428, 429, 430, 431, 433, 438
439, 440, 441, 442, 444, 449, 450, 451, 452, 457, 459, 460, 461, 464, 465, 468
469, 472, 473, 476, 477, 478, 481, 482, 485, 486, 489, 490, 493, 494, 495, 498
499, 502, 503, 506, 507, 510, 511, 514, 515, 518, 519, 522, 523, 526, 527, 528
531, 532, 535, 536, 539, 540, 543, 544, 545, 548, 549, 552, 553, 554, 557, 560
561, 562, 565, 566, 569, 570, 573, 574, 575, 577, 580, 581, 584, 585, 588, 589
592, 593, 595, 596, 597, 598, 599, 600, 601, 602, 603, 604, 605, 606, 607, 608
609, 610, 611, 627, 628, 629, 630, 631, 641, 642, 643, 644, 645, 655, 656, 657
658, 659, 664, 665, 670, 671, 681, 682, 683, 684, 685, 695, 696, 697, 698, 699
709, 710, 711, 712, 713, 718, 719, 724, 725, 735, 736, 737, 738, 739, 749, 750
** ... 743 like lines cut

*Nset,nset=panel0_Skin_Stringer_Sets
3, 4, 6, 8, 11, 12, 14, 16, 19, 20, 22, 24, 27, 28, 31, 32
35, 36, 38, 40, 43, 44, 46, 48, 51, 52, 54, 56, 59, 60, 63, 64
67, 68, 70, 72, 75, 76, 78, 80, 83, 84, 86, 88, 91, 92, 95, 96
97, 98, 99, 100, 101, 102, 103, 104, 105, 106, 107, 108, 109, 110, 111, 112
113, 114, 115, 116, 117, 118, 119, 120, 121, 122, 123, 124, 125, 126, 127, 128
129, 130, 131, 132, 133, 134, 135, 136, 137, 138, 139, 140, 141, 142, 143, 144
145, 146, 147, 148, 149, 150, 151, 152, 153, 154, 155, 156, 157, 158, 159, 160
161, 162, 163, 164, 165, 166, 167, 168, 169, 170, 171, 172, 173, 174, 175, 176
177, 178, 179, 180, 181, 182, 183, 184, 185, 186, 187, 188, 189, 190, 191, 192
193, 194, 195, 196, 197, 198, 199, 200, 201, 202, 203, 204, 205, 206, 207, 208
209, 210, 211, 212, 213, 418, 419, 420, 421, 422, 423, 424, 425, 426, 427, 428
429, 430, 431, 432, 433, 434, 435, 436, 437, 438, 439, 440, 441, 442, 443, 444
445, 446, 447, 448, 449, 450, 451, 452, 453, 454, 455, 456, 457, 458, 459, 460
461, 462, 463, 464, 465, 466, 467, 468, 469, 470, 471, 472, 473, 474, 475, 476
477, 478, 479, 480, 481, 482, 483, 484, 485, 486, 487, 488, 489, 490, 491, 492
493, 494, 495, 496, 497, 498, 499, 500, 501, 502, 503, 504, 505, 506, 507, 508
509, 510, 511, 512, 513, 514, 515, 516, 517, 518, 519, 520, 521, 522, 523, 524
525, 526, 527, 528, 529, 530, 531, 532, 533, 534, 535, 536, 537, 538, 539, 540
541, 542, 543, 544, 545, 546, 547, 548, 549, 550, 551, 552, 553, 554, 555, 556
557, 558, 559, 560, 561, 562, 563, 564, 565, 566, 567, 568, 569, 570, 571, 572
** ... 880 like lines cut

*Nset,nset=panel0_left_node_set_with_corner
119, 120, 122, 125, 126, 168, 169, 171, 174, 183, 186, 187, 581, 582, 585, 586
589, 590, 593, 594, 596, 597, 598, 602, 603, 604, 607, 610, 611, 612, 613, 616
618, 919, 920, 968, 969, 970, 971, 972, 1490, 1491, 1492, 1493, 1494, 3489, 3490, 3501
3502, 3503, 3504, 3505, 3516, 3517, 3565, 3566, 3601, 3602, 3643, 3644, 6574, 6597, 6620, 6625
6659, 6692, 6715, 6738, 6761, 6783, 7997, 8002, 8447, 8481, 8514, 8537, 8560, 8583, 8605, 14384
14439, 14496, 14552, 14846, 14849, 14850, 14871, 14893, 14915, 14937, 14959, 14971, 14992, 15055, 15058, 15059
15280, 15283, 15285, 15306, 15438, 15441, 15442, 15781, 15784, 15785, 16368, 16398, 16420, 16431, 16443, 16454
16476, 16487, 16509, 16748, 16770, 16781, 16803, 16928, 16950, 16961, 16983

*Nset,nset=panel0_left_skin_nodes_with_corner
119, 120, 122, 125, 126, 168, 169, 171, 174, 183, 186, 187, 581, 585, 589, 593
596, 597, 598, 602, 603, 604, 607, 610, 611, 919, 920, 968, 969, 970, 971, 972
1490, 1491, 1492, 1493, 1494, 3489, 3490, 3501, 3502, 3503, 3504, 3505, 3516, 3517, 3565, 3566
3601, 3602, 3643, 3644, 6574, 6597, 6620, 6625, 6659, 6692, 6715, 6738, 6761, 6783, 7997, 8002
8447, 8481, 8514, 8537, 8560, 8583, 8605, 14846, 14849, 14850, 14871, 14893, 14915, 14937, 14959, 14971
14992, 15055, 15058, 15059, 15280, 15283, 15285, 15306, 15438, 15441, 15442, 15781, 15784, 15785, 16368, 16398
16443, 16454, 16509, 16748, 16803, 16928, 16983

*Nset,nset=panel0_right_node_set_with_corner
97, 100, 134, 135, 137, 140, 153, 156, 157, 195, 196, 198, 201, 420, 421, 426
427, 429, 431, 436, 437, 439, 440, 442, 447, 448, 450, 457, 458, 575, 578, 595
606, 803, 804, 1237, 1238, 1239, 1240, 1241, 2240, 2241, 2286, 2287, 2342, 2343, 3472, 3473
3484, 3485, 3486, 3487, 3488, 3589, 3590, 3638, 3639, 3640, 3641, 3642, 6112, 6145, 6168, 6849
6854, 7437, 7471, 7504, 7527, 7550, 7573, 7595, 8671, 8676, 10560, 10601, 10667, 10669, 10671, 10683
10695, 10718, 10758, 10824, 10826, 10828, 10840, 10863, 10886, 10926, 10992, 10994, 10996, 11008, 11053, 11066
14305, 14344, 14564, 14616, 14618, 14619, 14642, 14684, 14706, 14728, 14750, 14772, 14784, 15205, 15372, 15375
15376, 15598, 15620, 15642, 15664, 15686, 15698, 16038, 16498, 16792, 16972

*Nset,nset=panel0_lower_node_set_with_corner
26, 27, 58, 59, 90, 91, 216, 217, 250, 251, 284, 285, 318, 319, 352, 353
386, 387, 599, 600, 601, 602, 605, 606, 608, 609, 663, 717, 771, 3530, 3531, 3532
3533, 3534, 3535, 3536, 3537, 3538, 3539, 3540, 3541, 3542, 3543, 3544, 3545, 3546, 3547, 3548
3549, 3550, 3555, 3556, 3557, 3558, 3559, 3560, 3561, 3562, 3563, 3564, 3591, 3592, 3593, 3594
3595, 3596, 3597, 3598, 3599, 3600, 3617, 3618, 3619, 3620, 3621, 3622, 3623, 3624, 3625, 3626
3627, 3628, 3629, 3630, 3631, 3632, 3633, 3634, 3635, 3636, 3637, 3696, 3699, 3703, 3706, 3720
3723, 5763, 5770, 5923, 5930, 6083, 6090, 9264, 9416, 9556, 9609, 9688, 9840, 9980, 10033, 10112
10264, 10404, 10457, 15067, 15073, 15079, 15085, 15091, 15097, 15103, 15109, 15115, 15121, 15127, 15133, 15139
15145, 15151, 15157, 15163, 15169, 15175, 15181, 15187, 15193, 15214, 15221, 15228, 15235, 15242, 15249, 15256
15263, 15270, 15277, 15284, 15311, 15319, 15325, 15331, 15337, 15343, 15349, 15355, 15361, 15367, 15373, 15446
15454, 15460, 15466, 15472, 15478, 15484, 15490, 15496, 15502, 15508, 15514, 15520, 15526, 15532, 15538, 15544
15550, 15556, 15562, 15568, 15574, 16527, 16528, 16567, 16568, 16626, 16627, 16696, 16697, 16836, 16837, 16891
16892

*Nset,nset=panel0_upper_node_set_with_corner
29, 32, 61, 64, 93, 96, 99, 100, 106, 107, 113, 114, 120, 121, 246, 247
280, 314, 315, 348, 382, 383, 416, 614, 615, 617, 672, 726, 780, 793, 794, 795
796, 797, 798, 799, 800, 801, 802, 832, 833, 834, 835, 836, 837, 838, 839, 840
841, 842, 843, 844, 845, 846, 847, 848, 849, 850, 851, 852, 882, 883, 884, 885
886, 887, 888, 889, 890, 891, 892, 893, 894, 895, 896, 897, 898, 899, 900, 901
902, 921, 922, 923, 924, 925, 926, 927, 928, 929, 930, 3695, 3698, 3702, 3705, 3719
3722, 5775, 5784, 5935, 5944, 6095, 6104, 6167, 6170, 6172, 6174, 6176, 6178, 6180, 6182, 6184
6186, 6188, 6315, 6318, 6320, 6322, 6324, 6326, 6328, 6330, 6332, 6334, 6336, 6338, 6340, 6342
6344, 6346, 6348, 6350, 6352, 6354, 6356, 6358, 6485, 6488, 6490, 6492, 6494, 6496, 6498, 6500
6502, 6504, 6506, 6508, 6510, 6512, 6514, 6516, 6518, 6520, 6522, 6524, 6526, 6528, 6600, 6603
6605, 6607, 6609, 6611, 6613, 6615, 6617, 6619, 6621, 9406, 9607, 9679, 9830, 10031, 10103, 10254
10455, 10527, 16517, 16518, 16557, 16558, 16593, 16601, 16602, 16671, 16672, 16737, 16811, 16812, 16866, 16867
16917

*Nset,nset=panel0_left_node_set_no_corner
119, 122, 125, 126, 168, 169, 171, 174, 183, 186, 187, 581, 582, 585, 586, 589
590, 593, 594, 596, 597, 598, 603, 604, 607, 610, 611, 612, 613, 616, 618, 919
920, 968, 969, 970, 971, 972, 1490, 1491, 1492, 1493, 1494, 3489, 3490, 3501, 3502, 3503
3504, 3505, 3516, 3517, 3565, 3566, 3601, 3602, 3643, 3644, 6574, 6597, 6620, 6625, 6659, 6692
6715, 6738, 6761, 6783, 7997, 8002, 8447, 8481, 8514, 8537, 8560, 8583, 8605, 14384, 14439, 14496
14552, 14846, 14849, 14850, 14871, 14893, 14915, 14937, 14959, 14971, 14992, 15055, 15058, 15059, 15280, 15283
15285, 15306, 15438, 15441, 15442, 15781, 15784, 15785, 16368, 16398, 16420, 16431, 16443, 16454, 16476, 16487
16509, 16748, 16770, 16781, 16803, 16928, 16950, 16961, 16983

*Nset,nset=panel0_left_skin_node_set_no_corner
119, 122, 125, 126, 168, 169, 171, 174, 183, 186, 187, 581, 585, 589, 593, 596
597, 598, 603, 604, 607, 610, 611, 919, 920, 968, 969, 970, 971, 972, 1490, 1491
1492, 1493, 1494, 3489, 3490, 3501, 3502, 3503, 3504, 3505, 3516, 3517, 3565, 3566, 3601, 3602
3643, 3644, 6574, 6597, 6620, 6625, 6659, 6692, 6715, 6738, 6761, 6783, 7997, 8002, 8447, 8481
8514, 8537, 8560, 8583, 8605, 14846, 14849, 14850, 14871, 14893, 14915, 14937, 14959, 14971, 14992, 15055
15058, 15059, 15280, 15283, 15285, 15306, 15438, 15441, 15442, 15781, 15784, 15785, 16368, 16398, 16443, 16454
16509, 16748, 16803, 16928, 16983

*Nset,nset=panel0_right_node_set_no_corner
97, 134, 135, 137, 140, 153, 156, 157, 195, 196, 198, 201, 420, 421, 426, 427
429, 431, 436, 437, 439, 440, 442, 447, 448, 450, 457, 458, 575, 578, 595, 803
804, 1237, 1238, 1239, 1240, 1241, 2240, 2241, 2286, 2287, 2342, 2343, 3472, 3473, 3484, 3485
3486, 3487, 3488, 3589, 3590, 3638, 3639, 3640, 3641, 3642, 6112, 6145, 6168, 6849, 6854, 7437
7471, 7504, 7527, 7550, 7573, 7595, 8671, 8676, 10560, 10601, 10667, 10669, 10671, 10683, 10695, 10718
10758, 10824, 10826, 10828, 10840, 10863, 10886, 10926, 10992, 10994, 10996, 11008, 11053, 11066, 14305, 14344
14564, 14616, 14618, 14619, 14642, 14684, 14706, 14728, 14750, 14772, 14784, 15205, 15372, 15375, 15376, 15598
15620, 15642, 15664, 15686, 15698, 16038, 16498, 16792, 16972

*Nset,nset=panel0_upper_node_set_no_corner
29, 32, 61, 64, 93, 96, 99, 106, 107, 113, 114, 121, 246, 247, 280, 314
315, 348, 382, 383, 416, 614, 615, 617, 672, 726, 780, 793, 794, 795, 796, 797
798, 799, 800, 801, 802, 832, 833, 834, 835, 836, 837, 838, 839, 840, 841, 842
843, 844, 845, 846, 847, 848, 849, 850, 851, 852, 882, 883, 884, 885, 886, 887
888, 889, 890, 891, 892, 893, 894, 895, 896, 897, 898, 899, 900, 901, 902, 921
922, 923, 924, 925, 926, 927, 928, 929, 930, 3695, 3698, 3702, 3705, 3719, 3722, 5775
5784, 5935, 5944, 6095, 6104, 6167, 6170, 6172, 6174, 6176, 6178, 6180, 6182, 6184, 6186, 6188
6315, 6318, 6320, 6322, 6324, 6326, 6328, 6330, 6332, 6334, 6336, 6338, 6340, 6342, 6344, 6346
6348, 6350, 6352, 6354, 6356, 6358, 6485, 6488, 6490, 6492, 6494, 6496, 6498, 6500, 6502, 6504
6506, 6508, 6510, 6512, 6514, 6516, 6518, 6520, 6522, 6524, 6526, 6528, 6600, 6603, 6605, 6607
6609, 6611, 6613, 6615, 6617, 6619, 6621, 9406, 9607, 9679, 9830, 10031, 10103, 10254, 10455, 10527
16517, 16518, 16557, 16558, 16593, 16601, 16602, 16671, 16672, 16737, 16811, 16812, 16866, 16867, 16917

*Nset,nset=panel0_lower_node_set_no_corner
26, 27, 58, 59, 90, 91, 216, 217, 250, 251, 284, 285, 318, 319, 352, 353
386, 387, 599, 600, 601, 605, 608, 609, 663, 717, 771, 3530, 3531, 3532, 3533, 3534
3535, 3536, 3537, 3538, 3539, 3540, 3541, 3542, 3543, 3544, 3545, 3546, 3547, 3548, 3549, 3550
3555, 3556, 3557, 3558, 3559, 3560, 3561, 3562, 3563, 3564, 3591, 3592, 3593, 3594, 3595, 3596
3597, 3598, 3599, 3600, 3617, 3618, 3619, 3620, 3621, 3622, 3623, 3624, 3625, 3626, 3627, 3628
3629, 3630, 3631, 3632, 3633, 3634, 3635, 3636, 3637, 3696, 3699, 3703, 3706, 3720, 3723, 5763
5770, 5923, 5930, 6083, 6090, 9264, 9416, 9556, 9609, 9688, 9840, 9980, 10033, 10112, 10264, 10404
10457, 15067, 15073, 15079, 15085, 15091, 15097, 15103, 15109, 15115, 15121, 15127, 15133, 15139, 15145, 15151
15157, 15163, 15169, 15175, 15181, 15187, 15193, 15214, 15221, 15228, 15235, 15242, 15249, 15256, 15263, 15270
15277, 15284, 15311, 15319, 15325, 15331, 15337, 15343, 15349, 15355, 15361, 15367, 15373, 15446, 15454, 15460
15466, 15472, 15478, 15484, 15490, 15496, 15502, 15508, 15514, 15520, 15526, 15532, 15538, 15544, 15550, 15556
15562, 15568, 15574, 16527, 16528, 16567, 16568, 16626, 16627, 16696, 16697, 16836, 16837, 16891, 16892

*Nset,nset=panel0_Loading_Node_Right
6168

*Nset,nset=panel0_slave_nodes_Right
97, 134, 135, 137, 140, 153, 156, 157, 195, 196, 198, 201, 420, 421, 426, 427
429, 431, 436, 437, 439, 440, 442, 447, 448, 450, 457, 458, 575, 578, 595, 803
804, 1237, 1238, 1239, 1240, 1241, 2240, 2241, 2286, 2287, 2342, 2343, 3472, 3473, 3484, 3485
3486, 3487, 3488, 3589, 3590, 3638, 3639, 3640, 3641, 3642, 6112, 6145, 6849, 6854, 7437, 7471
7504, 7527, 7550, 7573, 7595, 8671, 8676, 10560, 10601, 10667, 10669, 10671, 10683, 10695, 10718, 10758
10824, 10826, 10828, 10840, 10863, 10886, 10926, 10992, 10994, 10996, 11008, 11053, 11066, 14305, 14344, 14564
14616, 14618, 14619, 14642, 14684, 14706, 14728, 14750, 14772, 14784, 15205, 15372, 15375, 15376, 15598, 15620
15642, 15664, 15686, 15698, 16038, 16498, 16792, 16972

*Nset,nset=Set1_Bot_Top_Node0
602

*Nset,nset=Set2_Bot_Top_Node0
120

*Nset,nset=Set1_Bot_Top_Node1
15284

*Nset,nset=Set2_Bot_Top_Node1
6621

*Nset,nset=Set1_Bot_Top_Node2
3564

*Nset,nset=Set2_Bot_Top_Node2
921

*Nset,nset=Set1_Bot_Top_Node3
15277

*Nset,nset=Set2_Bot_Top_Node3
6619

*Nset,nset=Set1_Bot_Top_Node4
3563

*Nset,nset=Set2_Bot_Top_Node4
922

*Nset,nset=Set1_Bot_Top_Node5
15270

*Nset,nset=Set2_Bot_Top_Node5
6617

*Nset,nset=Set1_Bot_Top_Node6
3562

*Nset,nset=Set2_Bot_Top_Node6
923

*Nset,nset=Set1_Bot_Top_Node7
15263

*Nset,nset=Set2_Bot_Top_Node7
6615

*Nset,nset=Set1_Bot_Top_Node8
3561

*Nset,nset=Set2_Bot_Top_Node8
924

*Nset,nset=Set1_Bot_Top_Node9
15256

*Nset,nset=Set2_Bot_Top_Node9
** ... 1100 like lines cut
*Nset,nset=Set1_Left_Right_Node0
6620

*Nset,nset=Set2_Left_Right_Node0
6168

*Nset,nset=Set1_Left_Right_Node1
920

*Nset,nset=Set2_Left_Right_Node1
803

*Nset,nset=Set1_Left_Right_Node2
6597

*Nset,nset=Set2_Left_Right_Node2
6145

*Nset,nset=Set1_Left_Right_Node3
919

*Nset,nset=Set2_Left_Right_Node3
804

*Nset,nset=Set1_Left_Right_Node4
6574

*Nset,nset=Set2_Left_Right_Node4
6112

*Nset,nset=Set1_Left_Right_Node5
612

*Nset,nset=Set2_Left_Right_Node5
458

*Nset,nset=Set1_Left_Right_Node6
119

*Nset,nset=Set2_Left_Right_Node6
97

*Nset,nset=Set1_Left_Right_Node7
16368

*Nset,nset=Set2_Left_Right_Node7
16038

*Nset,nset=Set1_Left_Right_Node8
611

*Nset,nset=Set2_Left_Right_Node8
595

*Nset,nset=Set1_Left_Right_Node9
16431

*Nset,nset=Set2_Left_Right_Node9
14564

** ... 666 like lines cut
*Nset,nset="_T-Cylindrical Coordinate System"
panel0_left_node_set_no_corner, 
panel0_Loading_Node_Right, 
Set1_Left_Right_Node0, 
Set2_Left_Right_Node0, 
Set1_Left_Right_Node1, 
Set2_Left_Right_Node1, 
Set1_Left_Right_Node2, 
Set2_Left_Right_Node2,
Set1_Left_Right_Node3, 
Set2_Left_Right_Node3, 
Set1_Left_Right_Node4, 
Set2_Left_Right_Node4, 
Set1_Left_Right_Node5,
Set2_Left_Right_Node5,
Set1_Left_Right_Node6, 
Set2_Left_Right_Node6,
Set1_Left_Right_Node7, 
Set2_Left_Right_Node7, 
Set1_Left_Right_Node8, 
Set2_Left_Right_Node8, 
Set1_Left_Right_Node9, 
Set2_Left_Right_Node9, 
** ... 222 like lines cut
panel0_slave_nodes_Right,
Set1_Bot_Top_Node0, 
Set2_Bot_Top_Node0, 
Set1_Bot_Top_Node1, 
Set2_Bot_Top_Node1, 
Set1_Bot_Top_Node2, 
Set2_Bot_Top_Node2, 
Set1_Bot_Top_Node3, 
Set2_Bot_Top_Node3, 
Set1_Bot_Top_Node4, 
Set2_Bot_Top_Node4, 
Set1_Bot_Top_Node5
Set2_Bot_Top_Node5, 
Set1_Bot_Top_Node6, 
Set2_Bot_Top_Node6, 
Set1_Bot_Top_Node7, 
Set2_Bot_Top_Node7, 
Set1_Bot_Top_Node8, 
Set2_Bot_Top_Node8, 
Set1_Bot_Top_Node9, 
Set2_Bot_Top_Node9, 
** ... 365 like lines cut
*Transform, nset="_T-Cylindrical Coordinate System", type=C
0,0,0,0,0,1
*Elset,elset=panel0_Omegafoot
2118, 2119, 2120, 2121, 2122, 2123, 2124, 2125, 2126, 2127, 2128, 2186, 2187, 2188, 2189, 2190
2191, 2192, 2193, 2194, 2195, 2196, 2197, 2198, 2199, 2200, 2201, 2202, 2203, 2204, 2205, 2206
2207, 2265, 2266, 2267, 2268, 2269, 2270, 2271, 2272, 2273, 2274, 2275, 2276, 2277, 2278, 2279
2280, 2281, 2282, 2283, 2284, 2285, 2286, 2344, 2345, 2359, 2360, 2361, 2362, 2363, 2364, 2365
2366, 2367, 2368, 2369, 2378, 2379, 2380, 2381, 2394, 2395, 2396, 2397, 2410, 2411, 2412, 2413
2426, 2427, 2432, 2433, 2442, 2443, 2444, 2445, 2478, 2479, 2480, 2481, 2514, 2515, 2516, 2517
2550, 2551, 2552, 2553, 2554, 2555, 2556, 2557, 2558, 2559, 2560, 2561, 2562, 2563, 2564, 2565
2566, 2567, 2568, 2569, 2570, 2571, 2596, 2597, 2686, 2687, 2688, 2689, 2690, 2691, 2692, 2693
2694, 2695, 2696, 2697, 2698, 2699, 2700, 2701, 2702, 2703, 2704, 2705, 2706, 2707, 2708, 2709
2710, 2711, 2712, 2713, 2714, 2715, 2716, 2717, 2718, 2719, 2720, 2721, 2722, 2723, 2724, 2725
2726, 2727, 2728, 2729, 2842, 2843, 2844, 2845, 2846, 2847, 2848, 2849, 2850, 2851, 2852, 2853
2854, 2855, 2856, 2857, 2858, 2859, 2860, 2861, 2862, 2863, 2864, 2865, 2866, 2867, 2868, 2869
2870, 2871, 2872, 2873, 2874, 2875, 2876, 2877, 2878, 2879, 2880, 2881, 2882, 2883, 2884, 2885
2998, 2999, 3000, 3001, 3002, 3003, 3004, 3005, 3006, 3007, 3008, 3009, 3010, 3011, 3012, 3013
3014, 3015, 3016, 3017, 3018, 3019, 3020, 3021, 3022, 3023, 3024, 3025, 3026, 3027, 3028, 3029
3030, 3031, 3032, 3033, 3034, 3035, 3036, 3037, 3038, 3039, 3040, 3041, 3154, 3155, 3180, 3181
3182, 3183, 3184, 3185, 3186, 3187, 3188, 3189, 3190, 3191, 3192, 3193, 3194, 3195, 3196, 3197
3198, 3199, 3200, 3201, 3210, 3211, 3212, 3213, 3226, 3227, 3228, 3229, 3242, 3243, 3244, 3245
3258, 3259, 3264, 3265, 3274, 3275, 3276, 3277, 3310, 3311, 3312, 3313, 3346, 3347, 3348, 3349
3382, 3383, 3384, 3385, 3386, 3387, 3388, 3389, 3390, 3391, 3392, 3393, 3394, 3395, 3396, 3397
** ... 19 like lines cut

*Elset,elset=panel0_OmegaAll
2118, 2119, 2120, 2121, 2122, 2123, 2124, 2125, 2126, 2127, 2128, 2129, 2130, 2131, 2132, 2133
2134, 2135, 2136, 2137, 2138, 2139, 2140, 2141, 2175, 2176, 2177, 2178, 2179, 2180, 2181, 2182
2183, 2184, 2185, 2186, 2187, 2188, 2189, 2190, 2191, 2192, 2193, 2194, 2195, 2196, 2197, 2198
2199, 2200, 2201, 2202, 2203, 2204, 2205, 2206, 2207, 2208, 2209, 2210, 2211, 2212, 2213, 2214
2215, 2216, 2217, 2218, 2219, 2220, 2254, 2255, 2256, 2257, 2258, 2259, 2260, 2261, 2262, 2263
2264, 2265, 2266, 2267, 2268, 2269, 2270, 2271, 2272, 2273, 2274, 2275, 2276, 2277, 2278, 2279
2280, 2281, 2282, 2283, 2284, 2285, 2286, 2287, 2288, 2289, 2290, 2291, 2292, 2293, 2294, 2295
2296, 2297, 2298, 2299, 2333, 2334, 2335, 2336, 2337, 2338, 2339, 2340, 2341, 2342, 2343, 2344
2345, 2346, 2347, 2348, 2349, 2350, 2351, 2352, 2353, 2354, 2355, 2356, 2357, 2358, 2359, 2360
2361, 2362, 2363, 2364, 2365, 2366, 2367, 2368, 2369, 2370, 2371, 2378, 2379, 2380, 2381, 2382
2383, 2384, 2385, 2386, 2387, 2394, 2395, 2396, 2397, 2398, 2399, 2400, 2401, 2402, 2403, 2410
2411, 2412, 2413, 2414, 2415, 2416, 2417, 2418, 2419, 2426, 2427, 2428, 2429, 2430, 2431, 2432
2433, 2434, 2435, 2442, 2443, 2444, 2445, 2446, 2447, 2448, 2449, 2450, 2451, 2452, 2453, 2454
2455, 2456, 2457, 2458, 2459, 2460, 2461, 2462, 2463, 2464, 2465, 2466, 2467, 2468, 2469, 2476
2477, 2478, 2479, 2480, 2481, 2482, 2483, 2484, 2485, 2486, 2487, 2488, 2489, 2490, 2491, 2492
2493, 2494, 2495, 2496, 2497, 2498, 2499, 2500, 2501, 2502, 2503, 2504, 2505, 2512, 2513, 2514
2515, 2516, 2517, 2518, 2519, 2520, 2521, 2522, 2523, 2524, 2525, 2526, 2527, 2528, 2529, 2530
2531, 2532, 2533, 2534, 2535, 2536, 2537, 2538, 2539, 2540, 2541, 2548, 2549, 2550, 2551, 2552
2553, 2554, 2555, 2556, 2557, 2558, 2559, 2560, 2561, 2562, 2563, 2564, 2565, 2566, 2567, 2568
2569, 2570, 2571, 2572, 2573, 2574, 2575, 2576, 2577, 2578, 2579, 2580, 2581, 2582, 2583, 2584
** ... 78 like lines cut

*Elset,elset=panel0_Analysis_Set
1, 2, 3, 4, 5, 6, 7, 8, 9, 10, 11, 12, 13, 14, 15, 16
17, 18, 19, 20, 21, 22, 23, 24, 25, 26, 27, 28, 29, 30, 31, 32
33, 34, 35, 36, 37, 38, 39, 40, 41, 42, 43, 44, 45, 46, 47, 48
49, 50, 52, 53, 56, 57, 59, 60, 61, 62, 63, 64, 65, 66, 67, 68
69, 70, 71, 72, 73, 74, 75, 76, 77, 78, 79, 80, 81, 82, 83, 84
85, 86, 87, 88, 89, 90, 91, 92, 93, 94, 95, 96, 97, 98, 99, 100
101, 102, 103, 104, 105, 106, 107, 108, 109, 110, 112, 113, 116, 117, 119, 120
121, 122, 123, 124, 125, 126, 127, 128, 129, 130, 131, 132, 133, 134, 135, 136
137, 138, 139, 140, 141, 142, 143, 144, 145, 146, 147, 148, 149, 150, 151, 152
153, 154, 155, 156, 157, 158, 159, 160, 161, 162, 163, 164, 165, 166, 167, 168
169, 170, 172, 173, 176, 177, 179, 180, 185, 186, 187, 188, 189, 190, 191, 196
197, 198, 199, 200, 201, 202, 214, 215, 216, 217, 218, 219, 220, 221, 222, 223
224, 225, 226, 227, 228, 229, 230, 231, 232, 233, 234, 235, 236, 237, 238, 239
240, 241, 242, 243, 244, 245, 246, 247, 248, 249, 250, 251, 252, 253, 254, 255
256, 257, 258, 259, 260, 261, 284, 285, 286, 287, 288, 289, 290, 291, 292, 293
294, 295, 296, 297, 298, 299, 300, 301, 302, 303, 304, 305, 306, 307, 308, 309
310, 311, 312, 313, 314, 315, 316, 317, 318, 319, 320, 321, 322, 323, 324, 325
326, 327, 328, 329, 330, 331, 354, 355, 356, 357, 358, 359, 360, 361, 362, 363
364, 369, 370, 371, 372, 373, 374, 375, 395, 396, 397, 398, 399, 400, 401, 406
407, 408, 409, 410, 411, 412, 417, 418, 419, 420, 421, 422, 423, 428, 429, 430
** ... 295 like lines cut

*Elset,elset=panel0_Skin_Faces
181, 182, 183, 184, 185, 186, 187, 188, 189, 190, 191, 192, 193, 194, 195, 196
197, 198, 199, 200, 201, 202, 203, 204, 205, 206, 207, 208, 209, 210, 211, 212
213, 214, 215, 216, 217, 218, 219, 220, 221, 222, 223, 224, 225, 226, 227, 228
229, 230, 231, 232, 233, 234, 235, 236, 237, 238, 239, 240, 241, 242, 243, 244
245, 246, 247, 248, 249, 250, 251, 252, 253, 254, 255, 256, 257, 258, 259, 260
261, 262, 263, 264, 265, 266, 267, 268, 269, 270, 271, 272, 273, 274, 275, 276
277, 278, 279, 280, 281, 282, 283, 284, 285, 286, 287, 288, 289, 290, 291, 292
293, 294, 295, 296, 297, 298, 299, 300, 301, 302, 303, 304, 305, 306, 307, 308
309, 310, 311, 312, 313, 314, 315, 316, 317, 318, 319, 320, 321, 322, 323, 324
325, 326, 327, 328, 329, 330, 331, 332, 333, 334, 335, 336, 337, 338, 339, 340
341, 342, 343, 344, 345, 346, 347, 348, 349, 350, 351, 352, 353, 354, 355, 356
357, 358, 359, 360, 361, 362, 363, 364, 365, 366, 367, 368, 369, 370, 371, 372
373, 374, 375, 376, 377, 378, 379, 380, 381, 382, 383, 384, 385, 386, 387, 388
389, 390, 391, 392, 393, 394, 395, 396, 397, 398, 399, 400, 401, 402, 403, 404
405, 406, 407, 408, 409, 410, 411, 412, 413, 414, 415, 416, 417, 418, 419, 420
421, 422, 423, 424, 425, 426, 427, 428, 429, 430, 431, 432, 433, 434, 435, 436
437, 438, 439, 440, 441, 442, 443, 444, 445, 446, 447, 448, 449, 450, 451, 452
453, 454, 455, 456, 457, 458, 459, 460, 461, 462, 463, 464, 465, 466, 467, 468
469, 470, 471, 472, 473, 474, 475, 476, 477, 478, 479, 480, 481, 482, 483, 484
485, 486, 487, 488, 489, 490, 491, 492, 493, 494, 495, 496, 497, 498, 499, 500
** ... 229 like lines cut

*Elset,elset=panel0_Frame1
1, 2, 3, 4, 5, 6, 7, 8, 9, 10, 11, 12, 13, 14, 15, 16
17, 18, 19, 20, 21, 22, 23, 24, 25, 26, 27, 28, 29, 30, 31, 32
33, 34, 35, 36, 37, 38, 39, 40, 41, 42, 43, 44, 45, 46, 47, 48
49, 50, 51, 52, 53, 54, 55, 56, 57, 58, 59, 60, 61, 62, 63, 64
65, 66, 67, 68, 69, 70, 71, 72, 73, 74, 75, 76, 77, 78, 79, 80
81, 82, 83, 84, 85, 86, 87, 88, 89, 90, 91, 92, 93, 94, 95, 96
97, 98, 99, 100, 101, 102, 103, 104, 105, 106, 107, 108, 109, 110, 111, 112
113, 114, 115, 116, 117, 118, 119, 120, 121, 122, 123, 124, 125, 126, 127, 128
129, 130, 131, 132, 133, 134, 135, 136, 137, 138, 139, 140, 141, 142, 143, 144
145, 146, 147, 148, 149, 150, 151, 152, 153, 154, 155, 156, 157, 158, 159, 160
161, 162, 163, 164, 165, 166, 167, 168, 169, 170, 171, 172, 173, 174, 175, 176
177, 178, 179, 180, 1524, 1525, 1526, 1527, 1528, 1529, 1530, 1531, 1532, 1533, 1534, 1535
1536, 1537, 1538, 1539, 1540, 1541, 1542, 1543, 1544, 1545, 1546, 1547, 1548, 1549, 1550, 1551
1552, 1553, 1554, 1555, 1556, 1557, 1558, 1559, 1560, 1561, 1562, 1563, 1564, 1565, 1566, 1567
1568, 1569, 1570, 1571, 1572, 1573, 1574, 1575, 1576, 1577, 1578, 1579, 1580, 1581, 1582, 1583
1584, 1585, 1586, 1587, 1588, 1589, 1590, 1591, 1592, 1593, 1594, 1595, 1596, 1597, 1598, 1599
1600, 1601, 1602, 1603, 1604, 1605, 1606, 1607, 1608, 1609, 1610, 1611, 1612, 1613, 1614, 1615
1616, 1617, 1618, 1619, 1620, 1621, 1622, 1623, 1624, 1625, 1626, 1627, 1628, 1629, 1630, 1631
1632, 1633, 1634, 1635, 1636, 1637, 1638, 1639, 1640, 1641, 1642, 1643, 1644, 1645, 1646, 1647
1648, 1649, 1650, 1651, 1652, 1653, 1654, 1655, 1656, 1657, 1658, 1659, 1660, 1661, 1662, 1663
** ... 30 like lines cut

*Elset,elset=panel0_Cut_Skin_Sets
181, 182, 183, 184, 185, 186, 187, 188, 189, 190, 191, 192, 193, 194, 195, 196
197, 198, 199, 200, 201, 202, 203, 204, 205, 206, 207, 208, 209, 210, 211, 212
213, 218, 219, 220, 221, 222, 223, 224, 225, 226, 227, 228, 229, 230, 231, 232
233, 234, 235, 236, 237, 238, 239, 240, 241, 242, 243, 244, 245, 246, 247, 248
249, 250, 251, 252, 253, 254, 255, 256, 257, 258, 259, 260, 261, 262, 263, 264
265, 266, 267, 268, 269, 270, 271, 272, 273, 274, 275, 276, 277, 278, 279, 280
281, 282, 283, 288, 289, 290, 291, 292, 293, 294, 295, 296, 297, 298, 299, 300
301, 302, 303, 304, 305, 306, 307, 308, 309, 310, 311, 312, 313, 314, 315, 316
317, 318, 319, 320, 321, 322, 323, 324, 325, 326, 327, 328, 329, 330, 331, 332
333, 334, 335, 336, 337, 338, 339, 340, 341, 342, 343, 344, 345, 346, 347, 348
349, 350, 351, 352, 353, 358, 359, 360, 361, 362, 363, 364, 365, 366, 367, 368
369, 370, 371, 372, 373, 374, 375, 376, 377, 378, 379, 380, 381, 382, 383, 384
385, 386, 387, 388, 389, 390, 391, 392, 393, 394, 395, 396, 397, 398, 399, 400
401, 402, 403, 404, 405, 406, 407, 408, 409, 410, 411, 412, 413, 414, 415, 416
417, 418, 419, 420, 421, 422, 423, 424, 425, 426, 427, 428, 429, 430, 431, 432
433, 434, 435, 436, 437, 438, 439, 440, 441, 442, 443, 444, 445, 446, 447, 448
449, 450, 451, 452, 453, 454, 455, 456, 457, 458, 459, 460, 461, 462, 463, 464
465, 466, 467, 476, 477, 478, 479, 480, 481, 482, 483, 484, 485, 486, 487, 488
489, 490, 491, 492, 493, 494, 495, 496, 497, 498, 499, 500, 501, 502, 503, 504
505, 506, 507, 508, 509, 510, 511, 512, 513, 514, 515, 516, 517, 518, 519, 520
** ... 167 like lines cut

*Elset,elset=panel0_Skin_Element_Sets
181, 182, 183, 184, 185, 186, 187, 188, 189, 190, 191, 192, 193, 194, 195, 196
197, 198, 199, 200, 201, 202, 203, 204, 205, 206, 207, 208, 209, 210, 211, 212
213, 214, 215, 216, 217, 218, 219, 220, 221, 222, 223, 224, 225, 226, 227, 228
229, 230, 231, 232, 233, 234, 235, 236, 237, 238, 239, 240, 241, 242, 243, 244
245, 246, 247, 248, 249, 250, 251, 252, 253, 254, 255, 256, 257, 258, 259, 260
261, 262, 263, 264, 265, 266, 267, 268, 269, 270, 271, 272, 273, 274, 275, 276
277, 278, 279, 280, 281, 282, 283, 284, 285, 286, 287, 288, 289, 290, 291, 292
293, 294, 295, 296, 297, 298, 299, 300, 301, 302, 303, 304, 305, 306, 307, 308
309, 310, 311, 312, 313, 314, 315, 316, 317, 318, 319, 320, 321, 322, 323, 324
325, 326, 327, 328, 329, 330, 331, 332, 333, 334, 335, 336, 337, 338, 339, 340
341, 342, 343, 344, 345, 346, 347, 348, 349, 350, 351, 352, 353, 354, 355, 356
357, 358, 359, 360, 361, 362, 363, 364, 365, 366, 367, 368, 369, 370, 371, 372
373, 374, 375, 376, 377, 378, 379, 380, 381, 382, 383, 384, 385, 386, 387, 388
389, 390, 391, 392, 393, 394, 395, 396, 397, 398, 399, 400, 401, 402, 403, 404
405, 406, 407, 408, 409, 410, 411, 412, 413, 414, 415, 416, 417, 418, 419, 420
421, 422, 423, 424, 425, 426, 427, 428, 429, 430, 431, 432, 433, 434, 435, 436
437, 438, 439, 440, 441, 442, 443, 444, 445, 446, 447, 448, 449, 450, 451, 452
453, 454, 455, 456, 457, 458, 459, 460, 461, 462, 463, 464, 465, 466, 467, 468
469, 470, 471, 472, 473, 474, 475, 476, 477, 478, 479, 480, 481, 482, 483, 484
485, 486, 487, 488, 489, 490, 491, 492, 493, 494, 495, 496, 497, 498, 499, 500
** ... 229 like lines cut

*Elset,elset=_panel0_Skin_Faces_SPOS
181, 182, 183, 184, 185, 186, 187, 188, 189, 190, 191, 192, 193, 194, 195, 196
197, 198, 199, 200, 201, 202, 203, 204, 205, 206, 207, 208, 209, 210, 211, 212
213, 214, 215, 216, 217, 218, 219, 220, 221, 222, 223, 224, 225, 226, 227, 228
229, 230, 231, 232, 233, 234, 235, 236, 237, 238, 239, 240, 241, 242, 243, 244
245, 246, 247, 248, 249, 250, 251, 252, 253, 254, 255, 256, 257, 258, 259, 260
261, 262, 263, 264, 265, 266, 267, 268, 269, 270, 271, 272, 273, 274, 275, 276
277, 278, 279, 280, 281, 282, 283, 284, 285, 286, 287, 288, 289, 290, 291, 292
293, 294, 295, 296, 297, 298, 299, 300, 301, 302, 303, 304, 305, 306, 307, 308
309, 310, 311, 312, 313, 314, 315, 316, 317, 318, 319, 320, 321, 322, 323, 324
325, 326, 327, 328, 329, 330, 331, 332, 333, 334, 335, 336, 337, 338, 339, 340
341, 342, 343, 344, 345, 346, 347, 348, 349, 350, 351, 352, 353, 354, 355, 356
357, 358, 359, 360, 361, 362, 363, 364, 365, 366, 367, 368, 369, 370, 371, 372
373, 374, 375, 376, 377, 378, 379, 380, 381, 382, 383, 384, 385, 386, 387, 388
389, 390, 391, 392, 393, 394, 395, 396, 397, 398, 399, 400, 401, 402, 403, 404
405, 406, 407, 408, 409, 410, 411, 412, 413, 414, 415, 416, 417, 418, 419, 420
421, 422, 423, 424, 425, 426, 427, 428, 429, 430, 431, 432, 433, 434, 435, 436
437, 438, 439, 440, 441, 442, 443, 444, 445, 446, 447, 448, 449, 450, 451, 452
453, 454, 455, 456, 457, 458, 459, 460, 461, 462, 463, 464, 465, 466, 467, 468
469, 470, 471, 472, 473, 474, 475, 476, 477, 478, 479, 480, 481, 482, 483, 484
485, 486, 487, 488, 489, 490, 491, 492, 493, 494, 495, 496, 497, 498, 499, 500
** ... 229 like lines cut

*Elset,elset=panel0_Framefoot
214, 215, 216, 217, 284, 285, 286, 287, 354, 355, 356, 357, 468, 469, 470, 471
472, 473, 474, 475, 652, 653, 654, 655, 656, 657, 658, 659, 660, 661, 662, 663
664, 665, 666, 667, 668, 669, 670, 671, 672, 673, 674, 675, 676, 677, 678, 679
680, 681, 682, 683, 684, 685, 686, 687, 809, 810, 811, 812, 813, 814, 815, 816
993, 994, 995, 996, 997, 998, 999, 1000, 1001, 1002, 1003, 1004, 1005, 1006, 1007, 1008
1009, 1010, 1011, 1012, 1013, 1014, 1015, 1016, 1017, 1018, 1019, 1020, 1021, 1022, 1023, 1024
1025, 1026, 1027, 1028, 1260, 1261, 1262, 1263, 1264, 1265, 1266, 1267, 1444, 1445, 1446, 1447
1448, 1449, 1450, 1451, 1452, 1453, 1454, 1455, 1456, 1457, 1458, 1459, 1460, 1461, 1462, 1463
1464, 1465, 1466, 1467, 1468, 1469, 1470, 1471, 1472, 1473, 1474, 1475, 1476, 1477, 1478, 1479
5351, 5352, 5353, 5354, 5355, 5356, 5357, 5358, 5359, 5360, 5361, 5362, 5363, 5364, 5365, 5366
5367, 5368, 5369, 5370, 5371, 5372, 5373, 5374, 5375, 5376, 5377, 5378, 5382, 5383, 5384, 5385
5386, 5387, 5388, 5389, 5390, 5391, 5392, 5393, 5394, 5395, 5396, 5397, 5398, 5399, 5400, 5401
5402, 5403, 5404, 5405, 5406, 5407, 5408, 5409, 5415, 5416, 5417, 5418, 5419, 5420, 5421, 5422
5423, 5424, 5425, 5426, 5427, 5428, 5429, 5430, 5431, 5432, 5433, 5434, 5435, 5436, 5437, 5438
5439, 5440, 5441, 5442, 5443, 5444, 5445, 5446, 5447, 5448, 5449, 5450, 5451, 5452, 5453, 5454
5455, 5456, 5457, 5458, 5459, 5460, 5461, 5462, 5466, 5467, 5468, 5469, 5470, 5471, 5472, 5473
5474, 5475, 5476, 5477, 5478, 5479, 5480, 5481, 5482, 5483, 5484, 5485, 5486, 5487, 5488, 5489
5490, 5491, 5492, 5493, 5494, 5495, 5496, 5497, 5498, 5499, 5500, 5501, 5502, 5503, 5504, 5505
5506, 5507, 5508, 5509, 5510, 5511, 5512, 5513, 5574, 5575, 5576, 5577, 5578, 5579, 5580, 5581
5582, 5583, 5584, 5585, 5586, 5587, 5588, 5589, 5590, 5591, 5592, 5593, 5594, 5595, 5596, 5597
** ... 4 like lines cut

*Elset,elset=panel0_Omega1
2129, 2130, 2131, 2132, 2133, 2134, 2135, 2136, 2137, 2138, 2139, 2140, 2141, 2175, 2176, 2177
2178, 2179, 2180, 2181, 2182, 2183, 2184, 2185, 2208, 2209, 2210, 2211, 2212, 2213, 2214, 2215
2216, 2217, 2218, 2219, 2220, 2254, 2255, 2256, 2257, 2258, 2259, 2260, 2261, 2262, 2263, 2264
2287, 2288, 2289, 2290, 2291, 2292, 2293, 2294, 2295, 2296, 2297, 2298, 2299, 2333, 2334, 2335
2336, 2337, 2338, 2339, 2340, 2341, 2342, 2343, 2346, 2347, 2348, 2349, 2350, 2351, 2352, 2353
2354, 2355, 2356, 2357, 2358, 2370, 2371, 2382, 2383, 2384, 2385, 2386, 2387, 2398, 2399, 2400
2401, 2402, 2403, 2414, 2415, 2416, 2417, 2418, 2419, 2428, 2429, 2430, 2431, 2434, 2435, 2446
2447, 2448, 2449, 2450, 2451, 2452, 2453, 2454, 2455, 2456, 2457, 2458, 2459, 2460, 2461, 2462
2463, 2464, 2465, 2466, 2467, 2468, 2469, 2476, 2477, 2482, 2483, 2484, 2485, 2486, 2487, 2488
2489, 2490, 2491, 2492, 2493, 2494, 2495, 2496, 2497, 2498, 2499, 2500, 2501, 2502, 2503, 2504
2505, 2512, 2513, 2518, 2519, 2520, 2521, 2522, 2523, 2524, 2525, 2526, 2527, 2528, 2529, 2530
2531, 2532, 2533, 2534, 2535, 2536, 2537, 2538, 2539, 2540, 2541, 2548, 2549, 2572, 2573, 2574
2575, 2576, 2577, 2578, 2579, 2580, 2581, 2582, 2583, 2584, 2585, 2586, 2587, 2588, 2589, 2590
2591, 2592, 2593, 2594, 2595, 2598, 2599, 2600, 2601, 2602, 2603, 2604, 2605, 2606, 2607, 2608
2609, 2610, 2611, 2612, 2613, 2614, 2615, 2616, 2617, 2618, 2619, 2730, 2731, 2732, 2733, 2734
2735, 2736, 2737, 2738, 2739, 2740, 2741, 2742, 2743, 2744, 2745, 2746, 2747, 2748, 2749, 2750
2751, 2752, 2753, 2754, 2755, 2756, 2757, 2758, 2759, 2760, 2761, 2762, 2763, 2764, 2765, 2766
2767, 2768, 2769, 2770, 2771, 2772, 2773, 2774, 2775, 2886, 2887, 2888, 2889, 2890, 2891, 2892
2893, 2894, 2895, 2896, 2897, 2898, 2899, 2900, 2901, 2902, 2903, 2904, 2905, 2906, 2907, 2908
2909, 2910, 2911, 2912, 2913, 2914, 2915, 2916, 2917, 2918, 2919, 2920, 2921, 2922, 2923, 2924
** ... 39 like lines cut

*Elset,elset=panel0_Skin_Stringer_Sets
181, 182, 183, 184, 185, 186, 187, 188, 189, 190, 191, 192, 193, 194, 195, 196
197, 198, 199, 200, 201, 202, 203, 204, 205, 206, 207, 208, 209, 210, 211, 212
213, 214, 215, 216, 217, 218, 219, 220, 221, 222, 223, 224, 225, 226, 227, 228
229, 230, 231, 232, 233, 234, 235, 236, 237, 238, 239, 240, 241, 242, 243, 244
245, 246, 247, 248, 249, 250, 251, 252, 253, 254, 255, 256, 257, 258, 259, 260
261, 262, 263, 264, 265, 266, 267, 268, 269, 270, 271, 272, 273, 274, 275, 276
277, 278, 279, 280, 281, 282, 283, 284, 285, 286, 287, 288, 289, 290, 291, 292
293, 294, 295, 296, 297, 298, 299, 300, 301, 302, 303, 304, 305, 306, 307, 308
309, 310, 311, 312, 313, 314, 315, 316, 317, 318, 319, 320, 321, 322, 323, 324
325, 326, 327, 328, 329, 330, 331, 332, 333, 334, 335, 336, 337, 338, 339, 340
341, 342, 343, 344, 345, 346, 347, 348, 349, 350, 351, 352, 353, 354, 355, 356
357, 358, 359, 360, 361, 362, 363, 364, 365, 366, 367, 368, 369, 370, 371, 372
373, 374, 375, 376, 377, 378, 379, 380, 381, 382, 383, 384, 385, 386, 387, 388
389, 390, 391, 392, 393, 394, 395, 396, 397, 398, 399, 400, 401, 402, 403, 404
405, 406, 407, 408, 409, 410, 411, 412, 413, 414, 415, 416, 417, 418, 419, 420
421, 422, 423, 424, 425, 426, 427, 428, 429, 430, 431, 432, 433, 434, 435, 436
437, 438, 439, 440, 441, 442, 443, 444, 445, 446, 447, 448, 449, 450, 451, 452
453, 454, 455, 456, 457, 458, 459, 460, 461, 462, 463, 464, 465, 466, 467, 468
469, 470, 471, 472, 473, 474, 475, 476, 477, 478, 479, 480, 481, 482, 483, 484
485, 486, 487, 488, 489, 490, 491, 492, 493, 494, 495, 496, 497, 498, 499, 500
** ... 288 like lines cut
*ORIENTATION,name=ORI0.0,system=CYLINDRICAL
 0.0,0.0,0.0,1.0,0.0, 0
*ORIENTATION,name=ORI-45.0,system=CYLINDRICAL
 0.0,0.0,0.0,0.707106781187,-0.707106781187, 0
*ORIENTATION,name=ORI45.0,system=CYLINDRICAL
 0.0,0.0,0.0,0.707106781187,0.707106781187, 0
*ORIENTATION,name=ORI90.0,system=CYLINDRICAL
 0.0,0.0,0.0,0.0,1.0, 0
*Shell Section,composite,elset=panel0_Frame1,offset=0.5
0.125,,CYCOM_Prepreg,ORI-45.0
0.125,,CYCOM_Prepreg,ORI0.0
0.125,,CYCOM_Prepreg,ORI45.0
0.125,,CYCOM_Prepreg,ORI90.0
0.125,,CYCOM_Prepreg,ORI-45.0
0.125,,CYCOM_Prepreg,ORI0.0
0.125,,CYCOM_Prepreg,ORI45.0
0.125,,CYCOM_Prepreg,ORI45.0
0.125,,CYCOM_Prepreg,ORI0.0
0.125,,CYCOM_Prepreg,ORI-45.0
0.125,,CYCOM_Prepreg,ORI90.0
0.125,,CYCOM_Prepreg,ORI45.0
0.125,,CYCOM_Prepreg,ORI0.0
0.125,,CYCOM_Prepreg,ORI-45.0
*Shell Section,composite,elset=panel0_Framefoot,offset=-0.0333333
0.25,,CYCOM_Prepreg,ORI45.0
0.25,,CYCOM_Prepreg,ORI90.0
0.25,,CYCOM_Prepreg,ORI-45.0
0.25,,CYCOM_Prepreg,ORI0.0
0.25,,CYCOM_Prepreg,ORI0.0
0.25,,CYCOM_Prepreg,ORI-45.0
0.25,,CYCOM_Prepreg,ORI90.0
0.25,,CYCOM_Prepreg,ORI45.0
0.125,,CYCOM_Prepreg,ORI-45.0
0.125,,CYCOM_Prepreg,ORI0.0
0.125,,CYCOM_Prepreg,ORI45.0
0.125,,CYCOM_Prepreg,ORI90.0
0.125,,CYCOM_Prepreg,ORI-45.0
0.125,,CYCOM_Prepreg,ORI0.0
0.125,,CYCOM_Prepreg,ORI45.0
0.125,,CYCOM_Prepreg,ORI45.0
0.125,,CYCOM_Prepreg,ORI0.0
0.125,,CYCOM_Prepreg,ORI-45.0
0.125,,CYCOM_Prepreg,ORI90.0
0.125,,CYCOM_Prepreg,ORI45.0
0.125,,CYCOM_Prepreg,ORI0.0
0.125,,CYCOM_Prepreg,ORI-45.0
*Shell Section,composite,elset=panel0_Omegafoot,offset=-0.115385
0.25,,CYCOM_Prepreg,ORI45.0
0.25,,CYCOM_Prepreg,ORI90.0
0.25,,CYCOM_Prepreg,ORI-45.0
0.25,,CYCOM_Prepreg,ORI0.0
0.25,,CYCOM_Prepreg,ORI0.0
0.25,,CYCOM_Prepreg,ORI-45.0
0.25,,CYCOM_Prepreg,ORI90.0
0.25,,CYCOM_Prepreg,ORI45.0
0.125,,CYCOM_Prepreg,ORI-45.0
0.125,,CYCOM_Prepreg,ORI0.0
0.125,,CYCOM_Prepreg,ORI45.0
0.125,,CYCOM_Prepreg,ORI90.0
0.125,,CYCOM_Prepreg,ORI90.0
0.125,,CYCOM_Prepreg,ORI90.0
0.125,,CYCOM_Prepreg,ORI90.0
0.125,,CYCOM_Prepreg,ORI45.0
0.125,,CYCOM_Prepreg,ORI0.0
0.125,,CYCOM_Prepreg,ORI-45.0
*Shell Section,composite,elset=panel0_Cut_Skin_Sets,offset=-0.5
0.25,,CYCOM_Prepreg,ORI45.0
0.25,,CYCOM_Prepreg,ORI90.0
0.25,,CYCOM_Prepreg,ORI-45.0
0.25,,CYCOM_Prepreg,ORI0.0
0.25,,CYCOM_Prepreg,ORI0.0
0.25,,CYCOM_Prepreg,ORI-45.0
0.25,,CYCOM_Prepreg,ORI90.0
0.25,,CYCOM_Prepreg,ORI45.0
*Shell Section,composite,elset=panel0_Omega1,offset=0.5
0.125,,CYCOM_Prepreg,ORI-45.0
0.125,,CYCOM_Prepreg,ORI0.0
0.125,,CYCOM_Prepreg,ORI45.0
0.125,,CYCOM_Prepreg,ORI90.0
0.125,,CYCOM_Prepreg,ORI90.0
0.125,,CYCOM_Prepreg,ORI90.0
0.125,,CYCOM_Prepreg,ORI90.0
0.125,,CYCOM_Prepreg,ORI45.0
0.125,,CYCOM_Prepreg,ORI0.0
0.125,,CYCOM_Prepreg,ORI-45.0
*Equation
2
602, 1, 1.,120, 1, -1.
*Equation
2
602, 2, 1.,120, 2, -1.
*Equation
2
602, 3, 1.,120, 3, -1.
*Equation
2
15284, 1, 1.,6621, 1, -1.
*Equation
2
15284, 2, 1.,6621, 2, -1.
*Equation
2
15284, 3, 1.,6621, 3, -1.
*Equation
2
3564, 1, 1.,921, 1, -1.
*Equation
2
3564, 2, 1.,921, 2, -1.
*Equation
2
3564, 3, 1.,921, 3, -1.
*Equation
2
15277, 1, 1.,6619, 1, -1.
*Equation
2
15277, 2, 1.,6619, 2, -1.
*Equation
2
15277, 3, 1.,6619, 3, -1.
*Equation
2
3563, 1, 1.,922, 1, -1.
*Equation
2
3563, 2, 1.,922, 2, -1.
*Equation
2
3563, 3, 1.,922, 3, -1.
*Equation
2
15270, 1, 1.,6617, 1, -1.
*Equation
2
15270, 2, 1.,6617, 2, -1.
*Equation
2
15270, 3, 1.,6617, 3, -1.
*Equation
2
3562, 1, 1.,923, 1, -1.
*Equation
2
3562, 2, 1.,923, 2, -1.
*Equation
2
3562, 3, 1.,923, 3, -1.
*Equation
2
15263, 1, 1.,6615, 1, -1.
*Equation
2
15263, 2, 1.,6615, 2, -1.
*Equation
2
15263, 3, 1.,6615, 3, -1.
*Equation
2
3561, 1, 1.,924, 1, -1.
*Equation
2
3561, 2, 1.,924, 2, -1.
*Equation
2
3561, 3, 1.,924, 3, -1.
*Equation
2
15256, 1, 1.,6613, 1, -1.
*Equation
2
15256, 2, 1.,6613, 2, -1.
*Equation
2
15256, 3, 1.,6613, 3, -1.
*Equation
2
3560, 1, 1.,925, 1, -1.
*Equation
2
3560, 2, 1.,925, 2, -1.
*Equation
2
3560, 3, 1.,925, 3, -1.
*Equation
2
15249, 1, 1.,6611, 1, -1.
*Equation
2
15249, 2, 1.,6611, 2, -1.
*Equation
2
15249, 3, 1.,6611, 3, -1.
*Equation
2
3559, 1, 1.,926, 1, -1.
*Equation
2
3559, 2, 1.,926, 2, -1.
*Equation
2
3559, 3, 1.,926, 3, -1.
*Equation
2
15242, 1, 1.,6609, 1, -1.
*Equation
2
15242, 2, 1.,6609, 2, -1.
*Equation
2
15242, 3, 1.,6609, 3, -1.
*Equation
2
3558, 1, 1.,927, 1, -1.
*Equation
2
3558, 2, 1.,927, 2, -1.
*Equation
2
3558, 3, 1.,927, 3, -1.
*Equation
2
15235, 1, 1.,6607, 1, -1.
*Equation
2
15235, 2, 1.,6607, 2, -1.
*Equation
2
15235, 3, 1.,6607, 3, -1.
*Equation
2
3557, 1, 1.,928, 1, -1.
*Equation
2
3557, 2, 1.,928, 2, -1.
*Equation
2
3557, 3, 1.,928, 3, -1.
*Equation
2
15228, 1, 1.,6605, 1, -1.
*Equation
2
15228, 2, 1.,6605, 2, -1.
*Equation
2
15228, 3, 1.,6605, 3, -1.
*Equation
2
3556, 1, 1.,929, 1, -1.
*Equation
2
3556, 2, 1.,929, 2, -1.
*Equation
2
3556, 3, 1.,929, 3, -1.
*Equation
2
15221, 1, 1.,6603, 1, -1.
*Equation
2
15221, 2, 1.,6603, 2, -1.
*Equation
2
15221, 3, 1.,6603, 3, -1.
*Equation
2
3555, 1, 1.,930, 1, -1.
*Equation
2
3555, 2, 1.,930, 2, -1.
*Equation
2
3555, 3, 1.,930, 3, -1.
*Equation
2
15214, 1, 1.,6600, 1, -1.
*Equation
2
15214, 2, 1.,6600, 2, -1.
*Equation
2
15214, 3, 1.,6600, 3, -1.
*Equation
2
601, 1, 1.,121, 1, -1.
*Equation
2
601, 2, 1.,121, 2, -1.
*Equation
2
601, 3, 1.,121, 3, -1.
*Equation
2
16892, 1, 1.,16866, 1, -1.
*Equation
2
16892, 2, 1.,16866, 2, -1.
*Equation
2
16892, 3, 1.,16866, 3, -1.
*Equation
2
3723, 1, 1.,3722, 1, -1.
*Equation
2
3723, 2, 1.,3722, 2, -1.
*Equation
2
3723, 3, 1.,3722, 3, -1.
*Equation
2
16891, 1, 1.,16867, 1, -1.
*Equation
2
16891, 2, 1.,16867, 2, -1.
*Equation
2
16891, 3, 1.,16867, 3, -1.
*Equation
2
90, 1, 1.,93, 1, -1.
*Equation
2
90, 2, 1.,93, 2, -1.
*Equation
2
90, 3, 1.,93, 3, -1.
*Equation
2
91, 1, 1.,96, 1, -1.
*Equation
2
91, 2, 1.,96, 2, -1.
*Equation
2
91, 3, 1.,96, 3, -1.
*Equation
2
353, 1, 1.,382, 1, -1.
*Equation
2
353, 2, 1.,382, 2, -1.
*Equation
2
353, 3, 1.,382, 3, -1.
*Equation
2
386, 1, 1.,416, 1, -1.
*Equation
2
386, 2, 1.,416, 2, -1.
*Equation
2
386, 3, 1.,416, 3, -1.
*Equation
2
771, 1, 1.,780, 1, -1.
*Equation
2
771, 2, 1.,780, 2, -1.
*Equation
2
771, 3, 1.,780, 3, -1.
*Equation
2
6083, 1, 1.,6095, 1, -1.
*Equation
2
6083, 2, 1.,6095, 2, -1.
*Equation
2
6083, 3, 1.,6095, 3, -1.
*Equation
2
6090, 1, 1.,6104, 1, -1.
*Equation
2
6090, 2, 1.,6104, 2, -1.
*Equation
2
6090, 3, 1.,6104, 3, -1.
*Equation
2
10404, 1, 1.,10455, 1, -1.
*Equation
2
10404, 2, 1.,10455, 2, -1.
*Equation
2
10404, 3, 1.,10455, 3, -1.
*Equation
2
10457, 1, 1.,10527, 1, -1.
*Equation
2
10457, 2, 1.,10527, 2, -1.
*Equation
2
10457, 3, 1.,10527, 3, -1.
*Equation
2
16837, 1, 1.,16811, 1, -1.
*Equation
2
16837, 2, 1.,16811, 2, -1.
*Equation
2
16837, 3, 1.,16811, 3, -1.
*Equation
2
10112, 1, 1.,10254, 1, -1.
*Equation
2
10112, 2, 1.,10254, 2, -1.
*Equation
2
10112, 3, 1.,10254, 3, -1.
*Equation
2
10264, 1, 1.,16917, 1, -1.
*Equation
2
10264, 2, 1.,16917, 2, -1.
*Equation
2
10264, 3, 1.,16917, 3, -1.
*Equation
2
3720, 1, 1.,3719, 1, -1.
*Equation
2
3720, 2, 1.,3719, 2, -1.
*Equation
2
3720, 3, 1.,3719, 3, -1.
*Equation
2
16836, 1, 1.,16812, 1, -1.
*Equation
2
16836, 2, 1.,16812, 2, -1.
*Equation
2
16836, 3, 1.,16812, 3, -1.
*Equation
2
352, 1, 1.,383, 1, -1.
*Equation
2
352, 2, 1.,383, 2, -1.
*Equation
2
352, 3, 1.,383, 3, -1.
*Equation
2
387, 1, 1.,617, 1, -1.
*Equation
2
387, 2, 1.,617, 2, -1.
*Equation
2
387, 3, 1.,617, 3, -1.
*Equation
2
600, 1, 1.,113, 1, -1.
*Equation
2
600, 2, 1.,113, 2, -1.
*Equation
2
600, 3, 1.,113, 3, -1.
*Equation
2
15193, 1, 1.,6528, 1, -1.
*Equation
2
15193, 2, 1.,6528, 2, -1.
*Equation
2
15193, 3, 1.,6528, 3, -1.
*Equation
2
3550, 1, 1.,882, 1, -1.
*Equation
2
3550, 2, 1.,882, 2, -1.
*Equation
2
3550, 3, 1.,882, 3, -1.
*Equation
2
15187, 1, 1.,6526, 1, -1.
*Equation
2
15187, 2, 1.,6526, 2, -1.
*Equation
2
15187, 3, 1.,6526, 3, -1.
*Equation
2
3549, 1, 1.,883, 1, -1.
*Equation
2
3549, 2, 1.,883, 2, -1.
*Equation
2
3549, 3, 1.,883, 3, -1.
*Equation
2
15181, 1, 1.,6524, 1, -1.
*Equation
2
15181, 2, 1.,6524, 2, -1.
*Equation
2
15181, 3, 1.,6524, 3, -1.
*Equation
2
3548, 1, 1.,884, 1, -1.
*Equation
2
3548, 2, 1.,884, 2, -1.
*Equation
2
3548, 3, 1.,884, 3, -1.
*Equation
2
15175, 1, 1.,6522, 1, -1.
*Equation
2
15175, 2, 1.,6522, 2, -1.
*Equation
2
15175, 3, 1.,6522, 3, -1.
*Equation
2
3547, 1, 1.,885, 1, -1.
*Equation
2
3547, 2, 1.,885, 2, -1.
*Equation
2
3547, 3, 1.,885, 3, -1.
*Equation
2
15169, 1, 1.,6520, 1, -1.
*Equation
2
15169, 2, 1.,6520, 2, -1.
*Equation
2
15169, 3, 1.,6520, 3, -1.
*Equation
2
3546, 1, 1.,886, 1, -1.
*Equation
2
3546, 2, 1.,886, 2, -1.
*Equation
2
3546, 3, 1.,886, 3, -1.
*Equation
2
15163, 1, 1.,6518, 1, -1.
*Equation
2
15163, 2, 1.,6518, 2, -1.
*Equation
2
15163, 3, 1.,6518, 3, -1.
*Equation
2
3545, 1, 1.,887, 1, -1.
*Equation
2
3545, 2, 1.,887, 2, -1.
*Equation
2
3545, 3, 1.,887, 3, -1.
*Equation
2
15157, 1, 1.,6516, 1, -1.
*Equation
2
15157, 2, 1.,6516, 2, -1.
*Equation
2
15157, 3, 1.,6516, 3, -1.
*Equation
2
3544, 1, 1.,888, 1, -1.
*Equation
2
3544, 2, 1.,888, 2, -1.
*Equation
2
3544, 3, 1.,888, 3, -1.
*Equation
2
15151, 1, 1.,6514, 1, -1.
*Equation
2
15151, 2, 1.,6514, 2, -1.
*Equation
2
15151, 3, 1.,6514, 3, -1.
*Equation
2
3543, 1, 1.,889, 1, -1.
*Equation
2
3543, 2, 1.,889, 2, -1.
*Equation
2
3543, 3, 1.,889, 3, -1.
*Equation
2
15145, 1, 1.,6512, 1, -1.
*Equation
2
15145, 2, 1.,6512, 2, -1.
*Equation
2
15145, 3, 1.,6512, 3, -1.
*Equation
2
3542, 1, 1.,890, 1, -1.
*Equation
2
3542, 2, 1.,890, 2, -1.
*Equation
2
3542, 3, 1.,890, 3, -1.
*Equation
2
15139, 1, 1.,6510, 1, -1.
*Equation
2
15139, 2, 1.,6510, 2, -1.
*Equation
2
15139, 3, 1.,6510, 3, -1.
*Equation
2
3541, 1, 1.,891, 1, -1.
*Equation
2
3541, 2, 1.,891, 2, -1.
*Equation
2
3541, 3, 1.,891, 3, -1.
*Equation
2
15133, 1, 1.,6508, 1, -1.
*Equation
2
15133, 2, 1.,6508, 2, -1.
*Equation
2
15133, 3, 1.,6508, 3, -1.
*Equation
2
3540, 1, 1.,892, 1, -1.
*Equation
2
3540, 2, 1.,892, 2, -1.
*Equation
2
3540, 3, 1.,892, 3, -1.
*Equation
2
15127, 1, 1.,6506, 1, -1.
*Equation
2
15127, 2, 1.,6506, 2, -1.
*Equation
2
15127, 3, 1.,6506, 3, -1.
*Equation
2
3539, 1, 1.,893, 1, -1.
*Equation
2
3539, 2, 1.,893, 2, -1.
*Equation
2
3539, 3, 1.,893, 3, -1.
*Equation
2
15121, 1, 1.,6504, 1, -1.
*Equation
2
15121, 2, 1.,6504, 2, -1.
*Equation
2
15121, 3, 1.,6504, 3, -1.
*Equation
2
3538, 1, 1.,894, 1, -1.
*Equation
2
3538, 2, 1.,894, 2, -1.
*Equation
2
3538, 3, 1.,894, 3, -1.
*Equation
2
15115, 1, 1.,6502, 1, -1.
*Equation
2
15115, 2, 1.,6502, 2, -1.
*Equation
2
15115, 3, 1.,6502, 3, -1.
*Equation
2
3537, 1, 1.,895, 1, -1.
*Equation
2
3537, 2, 1.,895, 2, -1.
*Equation
2
3537, 3, 1.,895, 3, -1.
*Equation
2
15109, 1, 1.,6500, 1, -1.
*Equation
2
15109, 2, 1.,6500, 2, -1.
*Equation
2
15109, 3, 1.,6500, 3, -1.
*Equation
2
3536, 1, 1.,896, 1, -1.
*Equation
2
3536, 2, 1.,896, 2, -1.
*Equation
2
3536, 3, 1.,896, 3, -1.
*Equation
2
15103, 1, 1.,6498, 1, -1.
*Equation
2
15103, 2, 1.,6498, 2, -1.
*Equation
2
15103, 3, 1.,6498, 3, -1.
*Equation
2
3535, 1, 1.,897, 1, -1.
*Equation
2
3535, 2, 1.,897, 2, -1.
*Equation
2
3535, 3, 1.,897, 3, -1.
*Equation
2
15097, 1, 1.,6496, 1, -1.
*Equation
2
15097, 2, 1.,6496, 2, -1.
*Equation
2
15097, 3, 1.,6496, 3, -1.
*Equation
2
3534, 1, 1.,898, 1, -1.
*Equation
2
3534, 2, 1.,898, 2, -1.
*Equation
2
3534, 3, 1.,898, 3, -1.
*Equation
2
15091, 1, 1.,6494, 1, -1.
*Equation
2
15091, 2, 1.,6494, 2, -1.
*Equation
2
15091, 3, 1.,6494, 3, -1.
*Equation
2
3533, 1, 1.,899, 1, -1.
*Equation
2
3533, 2, 1.,899, 2, -1.
*Equation
2
3533, 3, 1.,899, 3, -1.
*Equation
2
15085, 1, 1.,6492, 1, -1.
*Equation
2
15085, 2, 1.,6492, 2, -1.
*Equation
2
15085, 3, 1.,6492, 3, -1.
*Equation
2
3532, 1, 1.,900, 1, -1.
*Equation
2
3532, 2, 1.,900, 2, -1.
*Equation
2
3532, 3, 1.,900, 3, -1.
*Equation
2
15079, 1, 1.,6490, 1, -1.
*Equation
2
15079, 2, 1.,6490, 2, -1.
*Equation
2
15079, 3, 1.,6490, 3, -1.
*Equation
2
3531, 1, 1.,901, 1, -1.
*Equation
2
3531, 2, 1.,901, 2, -1.
*Equation
2
3531, 3, 1.,901, 3, -1.
*Equation
2
15073, 1, 1.,6488, 1, -1.
*Equation
2
15073, 2, 1.,6488, 2, -1.
*Equation
2
15073, 3, 1.,6488, 3, -1.
*Equation
2
3530, 1, 1.,902, 1, -1.
*Equation
2
3530, 2, 1.,902, 2, -1.
*Equation
2
3530, 3, 1.,902, 3, -1.
*Equation
2
15067, 1, 1.,6485, 1, -1.
*Equation
2
15067, 2, 1.,6485, 2, -1.
*Equation
2
15067, 3, 1.,6485, 3, -1.
*Equation
2
599, 1, 1.,114, 1, -1.
*Equation
2
599, 2, 1.,114, 2, -1.
*Equation
2
599, 3, 1.,114, 3, -1.
*Equation
2
16697, 1, 1.,16671, 1, -1.
*Equation
2
16697, 2, 1.,16671, 2, -1.
*Equation
2
16697, 3, 1.,16671, 3, -1.
*Equation
2
3706, 1, 1.,3705, 1, -1.
*Equation
2
3706, 2, 1.,3705, 2, -1.
*Equation
2
3706, 3, 1.,3705, 3, -1.
*Equation
2
16696, 1, 1.,16672, 1, -1.
*Equation
2
16696, 2, 1.,16672, 2, -1.
*Equation
2
16696, 3, 1.,16672, 3, -1.
*Equation
2
58, 1, 1.,61, 1, -1.
*Equation
2
58, 2, 1.,61, 2, -1.
*Equation
2
58, 3, 1.,61, 3, -1.
*Equation
2
59, 1, 1.,64, 1, -1.
*Equation
2
59, 2, 1.,64, 2, -1.
*Equation
2
59, 3, 1.,64, 3, -1.
*Equation
2
285, 1, 1.,314, 1, -1.
*Equation
2
285, 2, 1.,314, 2, -1.
*Equation
2
285, 3, 1.,314, 3, -1.
*Equation
2
318, 1, 1.,348, 1, -1.
*Equation
2
318, 2, 1.,348, 2, -1.
*Equation
2
318, 3, 1.,348, 3, -1.
*Equation
2
717, 1, 1.,726, 1, -1.
*Equation
2
717, 2, 1.,726, 2, -1.
*Equation
2
717, 3, 1.,726, 3, -1.
*Equation
2
5923, 1, 1.,5935, 1, -1.
*Equation
2
5923, 2, 1.,5935, 2, -1.
*Equation
2
5923, 3, 1.,5935, 3, -1.
*Equation
2
5930, 1, 1.,5944, 1, -1.
*Equation
2
5930, 2, 1.,5944, 2, -1.
*Equation
2
5930, 3, 1.,5944, 3, -1.
*Equation
2
9980, 1, 1.,10031, 1, -1.
*Equation
2
9980, 2, 1.,10031, 2, -1.
*Equation
2
9980, 3, 1.,10031, 3, -1.
*Equation
2
10033, 1, 1.,10103, 1, -1.
*Equation
2
10033, 2, 1.,10103, 2, -1.
*Equation
2
10033, 3, 1.,10103, 3, -1.
*Equation
2
16627, 1, 1.,16601, 1, -1.
*Equation
2
16627, 2, 1.,16601, 2, -1.
*Equation
2
16627, 3, 1.,16601, 3, -1.
*Equation
2
9688, 1, 1.,9830, 1, -1.
*Equation
2
9688, 2, 1.,9830, 2, -1.
*Equation
2
9688, 3, 1.,9830, 3, -1.
*Equation
2
9840, 1, 1.,16737, 1, -1.
*Equation
2
9840, 2, 1.,16737, 2, -1.
*Equation
2
9840, 3, 1.,16737, 3, -1.
*Equation
2
3703, 1, 1.,3702, 1, -1.
*Equation
2
3703, 2, 1.,3702, 2, -1.
*Equation
2
3703, 3, 1.,3702, 3, -1.
*Equation
2
16626, 1, 1.,16602, 1, -1.
*Equation
2
16626, 2, 1.,16602, 2, -1.
*Equation
2
16626, 3, 1.,16602, 3, -1.
*Equation
2
284, 1, 1.,315, 1, -1.
*Equation
2
284, 2, 1.,315, 2, -1.
*Equation
2
284, 3, 1.,315, 3, -1.
*Equation
2
319, 1, 1.,615, 1, -1.
*Equation
2
319, 2, 1.,615, 2, -1.
*Equation
2
319, 3, 1.,615, 3, -1.
*Equation
2
608, 1, 1.,106, 1, -1.
*Equation
2
608, 2, 1.,106, 2, -1.
*Equation
2
608, 3, 1.,106, 3, -1.
*Equation
2
15446, 1, 1.,6358, 1, -1.
*Equation
2
15446, 2, 1.,6358, 2, -1.
*Equation
2
15446, 3, 1.,6358, 3, -1.
*Equation
2
3637, 1, 1.,832, 1, -1.
*Equation
2
3637, 2, 1.,832, 2, -1.
*Equation
2
3637, 3, 1.,832, 3, -1.
*Equation
2
15454, 1, 1.,6356, 1, -1.
*Equation
2
15454, 2, 1.,6356, 2, -1.
*Equation
2
15454, 3, 1.,6356, 3, -1.
*Equation
2
3636, 1, 1.,833, 1, -1.
*Equation
2
3636, 2, 1.,833, 2, -1.
*Equation
2
3636, 3, 1.,833, 3, -1.
*Equation
2
15460, 1, 1.,6354, 1, -1.
*Equation
2
15460, 2, 1.,6354, 2, -1.
*Equation
2
15460, 3, 1.,6354, 3, -1.
*Equation
2
3635, 1, 1.,834, 1, -1.
*Equation
2
3635, 2, 1.,834, 2, -1.
*Equation
2
3635, 3, 1.,834, 3, -1.
*Equation
2
15466, 1, 1.,6352, 1, -1.
*Equation
2
15466, 2, 1.,6352, 2, -1.
*Equation
2
15466, 3, 1.,6352, 3, -1.
*Equation
2
3634, 1, 1.,835, 1, -1.
*Equation
2
3634, 2, 1.,835, 2, -1.
*Equation
2
3634, 3, 1.,835, 3, -1.
*Equation
2
15472, 1, 1.,6350, 1, -1.
*Equation
2
15472, 2, 1.,6350, 2, -1.
*Equation
2
15472, 3, 1.,6350, 3, -1.
*Equation
2
3633, 1, 1.,836, 1, -1.
*Equation
2
3633, 2, 1.,836, 2, -1.
*Equation
2
3633, 3, 1.,836, 3, -1.
*Equation
2
15478, 1, 1.,6348, 1, -1.
*Equation
2
15478, 2, 1.,6348, 2, -1.
*Equation
2
15478, 3, 1.,6348, 3, -1.
*Equation
2
3632, 1, 1.,837, 1, -1.
*Equation
2
3632, 2, 1.,837, 2, -1.
*Equation
2
3632, 3, 1.,837, 3, -1.
*Equation
2
15484, 1, 1.,6346, 1, -1.
*Equation
2
15484, 2, 1.,6346, 2, -1.
*Equation
2
15484, 3, 1.,6346, 3, -1.
*Equation
2
3631, 1, 1.,838, 1, -1.
*Equation
2
3631, 2, 1.,838, 2, -1.
*Equation
2
3631, 3, 1.,838, 3, -1.
*Equation
2
15490, 1, 1.,6344, 1, -1.
*Equation
2
15490, 2, 1.,6344, 2, -1.
*Equation
2
15490, 3, 1.,6344, 3, -1.
*Equation
2
3630, 1, 1.,839, 1, -1.
*Equation
2
3630, 2, 1.,839, 2, -1.
*Equation
2
3630, 3, 1.,839, 3, -1.
*Equation
2
15496, 1, 1.,6342, 1, -1.
*Equation
2
15496, 2, 1.,6342, 2, -1.
*Equation
2
15496, 3, 1.,6342, 3, -1.
*Equation
2
3629, 1, 1.,840, 1, -1.
*Equation
2
3629, 2, 1.,840, 2, -1.
*Equation
2
3629, 3, 1.,840, 3, -1.
*Equation
2
15502, 1, 1.,6340, 1, -1.
*Equation
2
15502, 2, 1.,6340, 2, -1.
*Equation
2
15502, 3, 1.,6340, 3, -1.
*Equation
2
3628, 1, 1.,841, 1, -1.
*Equation
2
3628, 2, 1.,841, 2, -1.
*Equation
2
3628, 3, 1.,841, 3, -1.
*Equation
2
15508, 1, 1.,6338, 1, -1.
*Equation
2
15508, 2, 1.,6338, 2, -1.
*Equation
2
15508, 3, 1.,6338, 3, -1.
*Equation
2
3627, 1, 1.,842, 1, -1.
*Equation
2
3627, 2, 1.,842, 2, -1.
*Equation
2
3627, 3, 1.,842, 3, -1.
*Equation
2
15514, 1, 1.,6336, 1, -1.
*Equation
2
15514, 2, 1.,6336, 2, -1.
*Equation
2
15514, 3, 1.,6336, 3, -1.
*Equation
2
3626, 1, 1.,843, 1, -1.
*Equation
2
3626, 2, 1.,843, 2, -1.
*Equation
2
3626, 3, 1.,843, 3, -1.
*Equation
2
15520, 1, 1.,6334, 1, -1.
*Equation
2
15520, 2, 1.,6334, 2, -1.
*Equation
2
15520, 3, 1.,6334, 3, -1.
*Equation
2
3625, 1, 1.,844, 1, -1.
*Equation
2
3625, 2, 1.,844, 2, -1.
*Equation
2
3625, 3, 1.,844, 3, -1.
*Equation
2
15526, 1, 1.,6332, 1, -1.
*Equation
2
15526, 2, 1.,6332, 2, -1.
*Equation
2
15526, 3, 1.,6332, 3, -1.
*Equation
2
3624, 1, 1.,845, 1, -1.
*Equation
2
3624, 2, 1.,845, 2, -1.
*Equation
2
3624, 3, 1.,845, 3, -1.
*Equation
2
15532, 1, 1.,6330, 1, -1.
*Equation
2
15532, 2, 1.,6330, 2, -1.
*Equation
2
15532, 3, 1.,6330, 3, -1.
*Equation
2
3623, 1, 1.,846, 1, -1.
*Equation
2
3623, 2, 1.,846, 2, -1.
*Equation
2
3623, 3, 1.,846, 3, -1.
*Equation
2
15538, 1, 1.,6328, 1, -1.
*Equation
2
15538, 2, 1.,6328, 2, -1.
*Equation
2
15538, 3, 1.,6328, 3, -1.
*Equation
2
3622, 1, 1.,847, 1, -1.
*Equation
2
3622, 2, 1.,847, 2, -1.
*Equation
2
3622, 3, 1.,847, 3, -1.
*Equation
2
15544, 1, 1.,6326, 1, -1.
*Equation
2
15544, 2, 1.,6326, 2, -1.
*Equation
2
15544, 3, 1.,6326, 3, -1.
*Equation
2
3621, 1, 1.,848, 1, -1.
*Equation
2
3621, 2, 1.,848, 2, -1.
*Equation
2
3621, 3, 1.,848, 3, -1.
*Equation
2
15550, 1, 1.,6324, 1, -1.
*Equation
2
15550, 2, 1.,6324, 2, -1.
*Equation
2
15550, 3, 1.,6324, 3, -1.
*Equation
2
3620, 1, 1.,849, 1, -1.
*Equation
2
3620, 2, 1.,849, 2, -1.
*Equation
2
3620, 3, 1.,849, 3, -1.
*Equation
2
15556, 1, 1.,6322, 1, -1.
*Equation
2
15556, 2, 1.,6322, 2, -1.
*Equation
2
15556, 3, 1.,6322, 3, -1.
*Equation
2
3619, 1, 1.,850, 1, -1.
*Equation
2
3619, 2, 1.,850, 2, -1.
*Equation
2
3619, 3, 1.,850, 3, -1.
*Equation
2
15562, 1, 1.,6320, 1, -1.
*Equation
2
15562, 2, 1.,6320, 2, -1.
*Equation
2
15562, 3, 1.,6320, 3, -1.
*Equation
2
3618, 1, 1.,851, 1, -1.
*Equation
2
3618, 2, 1.,851, 2, -1.
*Equation
2
3618, 3, 1.,851, 3, -1.
*Equation
2
15568, 1, 1.,6318, 1, -1.
*Equation
2
15568, 2, 1.,6318, 2, -1.
*Equation
2
15568, 3, 1.,6318, 3, -1.
*Equation
2
3617, 1, 1.,852, 1, -1.
*Equation
2
3617, 2, 1.,852, 2, -1.
*Equation
2
3617, 3, 1.,852, 3, -1.
*Equation
2
15574, 1, 1.,6315, 1, -1.
*Equation
2
15574, 2, 1.,6315, 2, -1.
*Equation
2
15574, 3, 1.,6315, 3, -1.
*Equation
2
609, 1, 1.,107, 1, -1.
*Equation
2
609, 2, 1.,107, 2, -1.
*Equation
2
609, 3, 1.,107, 3, -1.
*Equation
2
16568, 1, 1.,16557, 1, -1.
*Equation
2
16568, 2, 1.,16557, 2, -1.
*Equation
2
16568, 3, 1.,16557, 3, -1.
*Equation
2
3699, 1, 1.,3698, 1, -1.
*Equation
2
3699, 2, 1.,3698, 2, -1.
*Equation
2
3699, 3, 1.,3698, 3, -1.
*Equation
2
16567, 1, 1.,16558, 1, -1.
*Equation
2
16567, 2, 1.,16558, 2, -1.
*Equation
2
16567, 3, 1.,16558, 3, -1.
*Equation
2
26, 1, 1.,29, 1, -1.
*Equation
2
26, 2, 1.,29, 2, -1.
*Equation
2
26, 3, 1.,29, 3, -1.
*Equation
2
27, 1, 1.,32, 1, -1.
*Equation
2
27, 2, 1.,32, 2, -1.
*Equation
2
27, 3, 1.,32, 3, -1.
*Equation
2
217, 1, 1.,246, 1, -1.
*Equation
2
217, 2, 1.,246, 2, -1.
*Equation
2
217, 3, 1.,246, 3, -1.
*Equation
2
250, 1, 1.,280, 1, -1.
*Equation
2
250, 2, 1.,280, 2, -1.
*Equation
2
250, 3, 1.,280, 3, -1.
*Equation
2
663, 1, 1.,672, 1, -1.
*Equation
2
663, 2, 1.,672, 2, -1.
*Equation
2
663, 3, 1.,672, 3, -1.
*Equation
2
5763, 1, 1.,5775, 1, -1.
*Equation
2
5763, 2, 1.,5775, 2, -1.
*Equation
2
5763, 3, 1.,5775, 3, -1.
*Equation
2
5770, 1, 1.,5784, 1, -1.
*Equation
2
5770, 2, 1.,5784, 2, -1.
*Equation
2
5770, 3, 1.,5784, 3, -1.
*Equation
2
9556, 1, 1.,9607, 1, -1.
*Equation
2
9556, 2, 1.,9607, 2, -1.
*Equation
2
9556, 3, 1.,9607, 3, -1.
*Equation
2
9609, 1, 1.,9679, 1, -1.
*Equation
2
9609, 2, 1.,9679, 2, -1.
*Equation
2
9609, 3, 1.,9679, 3, -1.
*Equation
2
16528, 1, 1.,16517, 1, -1.
*Equation
2
16528, 2, 1.,16517, 2, -1.
*Equation
2
16528, 3, 1.,16517, 3, -1.
*Equation
2
9264, 1, 1.,9406, 1, -1.
*Equation
2
9264, 2, 1.,9406, 2, -1.
*Equation
2
9264, 3, 1.,9406, 3, -1.
*Equation
2
9416, 1, 1.,16593, 1, -1.
*Equation
2
9416, 2, 1.,16593, 2, -1.
*Equation
2
9416, 3, 1.,16593, 3, -1.
*Equation
2
3696, 1, 1.,3695, 1, -1.
*Equation
2
3696, 2, 1.,3695, 2, -1.
*Equation
2
3696, 3, 1.,3695, 3, -1.
*Equation
2
16527, 1, 1.,16518, 1, -1.
*Equation
2
16527, 2, 1.,16518, 2, -1.
*Equation
2
16527, 3, 1.,16518, 3, -1.
*Equation
2
216, 1, 1.,247, 1, -1.
*Equation
2
216, 2, 1.,247, 2, -1.
*Equation
2
216, 3, 1.,247, 3, -1.
*Equation
2
251, 1, 1.,614, 1, -1.
*Equation
2
251, 2, 1.,614, 2, -1.
*Equation
2
251, 3, 1.,614, 3, -1.
*Equation
2
605, 1, 1.,99, 1, -1.
*Equation
2
605, 2, 1.,99, 2, -1.
*Equation
2
605, 3, 1.,99, 3, -1.
*Equation
2
15311, 1, 1.,6188, 1, -1.
*Equation
2
15311, 2, 1.,6188, 2, -1.
*Equation
2
15311, 3, 1.,6188, 3, -1.
*Equation
2
3600, 1, 1.,793, 1, -1.
*Equation
2
3600, 2, 1.,793, 2, -1.
*Equation
2
3600, 3, 1.,793, 3, -1.
*Equation
2
15319, 1, 1.,6186, 1, -1.
*Equation
2
15319, 2, 1.,6186, 2, -1.
*Equation
2
15319, 3, 1.,6186, 3, -1.
*Equation
2
3599, 1, 1.,794, 1, -1.
*Equation
2
3599, 2, 1.,794, 2, -1.
*Equation
2
3599, 3, 1.,794, 3, -1.
*Equation
2
15325, 1, 1.,6184, 1, -1.
*Equation
2
15325, 2, 1.,6184, 2, -1.
*Equation
2
15325, 3, 1.,6184, 3, -1.
*Equation
2
3598, 1, 1.,795, 1, -1.
*Equation
2
3598, 2, 1.,795, 2, -1.
*Equation
2
3598, 3, 1.,795, 3, -1.
*Equation
2
15331, 1, 1.,6182, 1, -1.
*Equation
2
15331, 2, 1.,6182, 2, -1.
*Equation
2
15331, 3, 1.,6182, 3, -1.
*Equation
2
3597, 1, 1.,796, 1, -1.
*Equation
2
3597, 2, 1.,796, 2, -1.
*Equation
2
3597, 3, 1.,796, 3, -1.
*Equation
2
15337, 1, 1.,6180, 1, -1.
*Equation
2
15337, 2, 1.,6180, 2, -1.
*Equation
2
15337, 3, 1.,6180, 3, -1.
*Equation
2
3596, 1, 1.,797, 1, -1.
*Equation
2
3596, 2, 1.,797, 2, -1.
*Equation
2
3596, 3, 1.,797, 3, -1.
*Equation
2
15343, 1, 1.,6178, 1, -1.
*Equation
2
15343, 2, 1.,6178, 2, -1.
*Equation
2
15343, 3, 1.,6178, 3, -1.
*Equation
2
3595, 1, 1.,798, 1, -1.
*Equation
2
3595, 2, 1.,798, 2, -1.
*Equation
2
3595, 3, 1.,798, 3, -1.
*Equation
2
15349, 1, 1.,6176, 1, -1.
*Equation
2
15349, 2, 1.,6176, 2, -1.
*Equation
2
15349, 3, 1.,6176, 3, -1.
*Equation
2
3594, 1, 1.,799, 1, -1.
*Equation
2
3594, 2, 1.,799, 2, -1.
*Equation
2
3594, 3, 1.,799, 3, -1.
*Equation
2
15355, 1, 1.,6174, 1, -1.
*Equation
2
15355, 2, 1.,6174, 2, -1.
*Equation
2
15355, 3, 1.,6174, 3, -1.
*Equation
2
3593, 1, 1.,800, 1, -1.
*Equation
2
3593, 2, 1.,800, 2, -1.
*Equation
2
3593, 3, 1.,800, 3, -1.
*Equation
2
15361, 1, 1.,6172, 1, -1.
*Equation
2
15361, 2, 1.,6172, 2, -1.
*Equation
2
15361, 3, 1.,6172, 3, -1.
*Equation
2
3592, 1, 1.,801, 1, -1.
*Equation
2
3592, 2, 1.,801, 2, -1.
*Equation
2
3592, 3, 1.,801, 3, -1.
*Equation
2
15367, 1, 1.,6170, 1, -1.
*Equation
2
15367, 2, 1.,6170, 2, -1.
*Equation
2
15367, 3, 1.,6170, 3, -1.
*Equation
2
3591, 1, 1.,802, 1, -1.
*Equation
2
3591, 2, 1.,802, 2, -1.
*Equation
2
3591, 3, 1.,802, 3, -1.
*Equation
2
15373, 1, 1.,6167, 1, -1.
*Equation
2
15373, 2, 1.,6167, 2, -1.
*Equation
2
15373, 3, 1.,6167, 3, -1.
*Equation
2
606, 1, 1.,100, 1, -1.
*Equation
2
606, 2, 1.,100, 2, -1.
*Equation
2
606, 3, 1.,100, 3, -1.
*Equation
2
6620, 1, 1.,6168, 1, -1.
*Equation
2
920, 1, 1.,803, 1, -1.
*Equation
2
6597, 1, 1.,6145, 1, -1.
*Equation
2
919, 1, 1.,804, 1, -1.
*Equation
2
6574, 1, 1.,6112, 1, -1.
*Equation
2
612, 1, 1.,458, 1, -1.
*Equation
2
119, 1, 1.,97, 1, -1.
*Equation
2
16368, 1, 1.,16038, 1, -1.
*Equation
2
611, 1, 1.,595, 1, -1.
*Equation
2
16431, 1, 1.,14564, 1, -1.
*Equation
2
16420, 1, 1.,11053, 1, -1.
*Equation
2
594, 1, 1.,578, 1, -1.
*Equation
2
16398, 1, 1.,14642, 1, -1.
*Equation
2
610, 1, 1.,457, 1, -1.
*Equation
2
15781, 1, 1.,14619, 1, -1.
*Equation
2
3644, 1, 1.,3472, 1, -1.
*Equation
2
14552, 1, 1.,14344, 1, -1.
*Equation
2
15784, 1, 1.,14618, 1, -1.
*Equation
2
3643, 1, 1.,3473, 1, -1.
*Equation
2
15785, 1, 1.,14616, 1, -1.
*Equation
2
593, 1, 1.,575, 1, -1.
*Equation
2
16443, 1, 1.,14305, 1, -1.
*Equation
2
604, 1, 1.,201, 1, -1.
*Equation
2
15306, 1, 1.,8676, 1, -1.
*Equation
2
187, 1, 1.,198, 1, -1.
*Equation
2
8481, 1, 1.,15598, 1, -1.
*Equation
2
1494, 1, 1.,3638, 1, -1.
*Equation
2
8514, 1, 1.,15620, 1, -1.
*Equation
2
1493, 1, 1.,3639, 1, -1.
*Equation
2
8537, 1, 1.,15642, 1, -1.
*Equation
2
1492, 1, 1.,3640, 1, -1.
*Equation
2
8560, 1, 1.,15664, 1, -1.
*Equation
2
1491, 1, 1.,3641, 1, -1.
*Equation
2
8583, 1, 1.,15686, 1, -1.
*Equation
2
613, 1, 1.,447, 1, -1.
*Equation
2
1490, 1, 1.,3642, 1, -1.
*Equation
2
16487, 1, 1.,10926, 1, -1.
*Equation
2
8605, 1, 1.,15698, 1, -1.
*Equation
2
590, 1, 1.,448, 1, -1.
*Equation
2
183, 1, 1.,195, 1, -1.
*Equation
2
8447, 1, 1.,8671, 1, -1.
*Equation
2
16476, 1, 1.,11008, 1, -1.
*Equation
2
186, 1, 1.,196, 1, -1.
*Equation
2
16454, 1, 1.,11066, 1, -1.
*Equation
2
607, 1, 1.,450, 1, -1.
*Equation
2
14496, 1, 1.,16498, 1, -1.
*Equation
2
15438, 1, 1.,10996, 1, -1.
*Equation
2
3602, 1, 1.,2342, 1, -1.
*Equation
2
15441, 1, 1.,10994, 1, -1.
*Equation
2
3601, 1, 1.,2343, 1, -1.
*Equation
2
15442, 1, 1.,10992, 1, -1.
*Equation
2
589, 1, 1.,442, 1, -1.
*Equation
2
16509, 1, 1.,10886, 1, -1.
*Equation
2
169, 1, 1.,156, 1, -1.
*Equation
2
7997, 1, 1.,7437, 1, -1.
*Equation
2
168, 1, 1.,153, 1, -1.
*Equation
2
14971, 1, 1.,7595, 1, -1.
*Equation
2
3505, 1, 1.,1237, 1, -1.
*Equation
2
14959, 1, 1.,7573, 1, -1.
*Equation
2
3504, 1, 1.,1238, 1, -1.
*Equation
2
14937, 1, 1.,7550, 1, -1.
*Equation
2
616, 1, 1.,436, 1, -1.
*Equation
2
3503, 1, 1.,1239, 1, -1.
*Equation
2
16781, 1, 1.,10758, 1, -1.
*Equation
2
14915, 1, 1.,7527, 1, -1.
*Equation
2
586, 1, 1.,437, 1, -1.
*Equation
2
3502, 1, 1.,1240, 1, -1.
*Equation
2
14893, 1, 1.,7504, 1, -1.
*Equation
2
3501, 1, 1.,1241, 1, -1.
*Equation
2
16770, 1, 1.,10840, 1, -1.
*Equation
2
14871, 1, 1.,7471, 1, -1.
*Equation
2
171, 1, 1.,157, 1, -1.
*Equation
2
8002, 1, 1.,15205, 1, -1.
*Equation
2
174, 1, 1.,440, 1, -1.
*Equation
2
14439, 1, 1.,16792, 1, -1.
*Equation
2
16748, 1, 1.,10863, 1, -1.
*Equation
2
598, 1, 1.,439, 1, -1.
*Equation
2
15055, 1, 1.,10828, 1, -1.
*Equation
2
3517, 1, 1.,2286, 1, -1.
*Equation
2
15058, 1, 1.,10826, 1, -1.
*Equation
2
3516, 1, 1.,2287, 1, -1.
*Equation
2
15059, 1, 1.,10824, 1, -1.
*Equation
2
585, 1, 1.,431, 1, -1.
*Equation
2
618, 1, 1.,426, 1, -1.
*Equation
2
16961, 1, 1.,10601, 1, -1.
*Equation
2
582, 1, 1.,427, 1, -1.
*Equation
2
16803, 1, 1.,10718, 1, -1.
*Equation
2
597, 1, 1.,140, 1, -1.
*Equation
2
14992, 1, 1.,6854, 1, -1.
*Equation
2
126, 1, 1.,137, 1, -1.
*Equation
2
6659, 1, 1.,14684, 1, -1.
*Equation
2
972, 1, 1.,3484, 1, -1.
*Equation
2
6692, 1, 1.,14706, 1, -1.
*Equation
2
971, 1, 1.,3485, 1, -1.
*Equation
2
16950, 1, 1.,10683, 1, -1.
*Equation
2
6715, 1, 1.,14728, 1, -1.
*Equation
2
970, 1, 1.,3486, 1, -1.
*Equation
2
14384, 1, 1.,16972, 1, -1.
*Equation
2
6738, 1, 1.,14750, 1, -1.
*Equation
2
969, 1, 1.,3487, 1, -1.
*Equation
2
6761, 1, 1.,14772, 1, -1.
*Equation
2
968, 1, 1.,3488, 1, -1.
*Equation
2
6783, 1, 1.,14784, 1, -1.
*Equation
2
122, 1, 1.,134, 1, -1.
*Equation
2
6625, 1, 1.,6849, 1, -1.
*Equation
2
125, 1, 1.,135, 1, -1.
*Equation
2
16928, 1, 1.,10695, 1, -1.
*Equation
2
596, 1, 1.,429, 1, -1.
*Equation
2
14846, 1, 1.,10671, 1, -1.
*Equation
2
3490, 1, 1.,2240, 1, -1.
*Equation
2
14849, 1, 1.,10669, 1, -1.
*Equation
2
3489, 1, 1.,2241, 1, -1.
*Equation
2
14850, 1, 1.,10667, 1, -1.
*Equation
2
581, 1, 1.,420, 1, -1.
*Equation
2
16983, 1, 1.,10560, 1, -1.
*Equation
2
603, 1, 1.,421, 1, -1.
*Equation
2
15280, 1, 1.,15376, 1, -1.
*Equation
2
3566, 1, 1.,3589, 1, -1.
*Equation
2
15283, 1, 1.,15375, 1, -1.
*Equation
2
3565, 1, 1.,3590, 1, -1.
*Equation
2
15285, 1, 1.,15372, 1, -1.
*Equation
2
97, 2, 1., 6168, 2, -1
*Equation
2
97, 3, 1., 6168, 3, -1
*Equation
2
134, 2, 1., 6168, 2, -1
*Equation
2
134, 3, 1., 6168, 3, -1
*Equation
2
135, 2, 1., 6168, 2, -1
*Equation
2
135, 3, 1., 6168, 3, -1
*Equation
2
137, 2, 1., 6168, 2, -1
*Equation
2
137, 3, 1., 6168, 3, -1
*Equation
2
140, 2, 1., 6168, 2, -1
*Equation
2
140, 3, 1., 6168, 3, -1
*Equation
2
153, 2, 1., 6168, 2, -1
*Equation
2
153, 3, 1., 6168, 3, -1
*Equation
2
156, 2, 1., 6168, 2, -1
*Equation
2
156, 3, 1., 6168, 3, -1
*Equation
2
157, 2, 1., 6168, 2, -1
*Equation
2
157, 3, 1., 6168, 3, -1
*Equation
2
195, 2, 1., 6168, 2, -1
*Equation
2
195, 3, 1., 6168, 3, -1
*Equation
2
196, 2, 1., 6168, 2, -1
*Equation
2
196, 3, 1., 6168, 3, -1
*Equation
2
198, 2, 1., 6168, 2, -1
*Equation
2
198, 3, 1., 6168, 3, -1
*Equation
2
201, 2, 1., 6168, 2, -1
*Equation
2
201, 3, 1., 6168, 3, -1
*Equation
2
420, 2, 1., 6168, 2, -1
*Equation
2
420, 3, 1., 6168, 3, -1
*Equation
2
421, 2, 1., 6168, 2, -1
*Equation
2
421, 3, 1., 6168, 3, -1
*Equation
2
426, 2, 1., 6168, 2, -1
*Equation
2
426, 3, 1., 6168, 3, -1
*Equation
2
427, 2, 1., 6168, 2, -1
*Equation
2
427, 3, 1., 6168, 3, -1
*Equation
2
429, 2, 1., 6168, 2, -1
*Equation
2
429, 3, 1., 6168, 3, -1
*Equation
2
431, 2, 1., 6168, 2, -1
*Equation
2
431, 3, 1., 6168, 3, -1
*Equation
2
436, 2, 1., 6168, 2, -1
*Equation
2
436, 3, 1., 6168, 3, -1
*Equation
2
437, 2, 1., 6168, 2, -1
*Equation
2
437, 3, 1., 6168, 3, -1
*Equation
2
439, 2, 1., 6168, 2, -1
*Equation
2
439, 3, 1., 6168, 3, -1
*Equation
2
440, 2, 1., 6168, 2, -1
*Equation
2
440, 3, 1., 6168, 3, -1
*Equation
2
442, 2, 1., 6168, 2, -1
*Equation
2
442, 3, 1., 6168, 3, -1
*Equation
2
447, 2, 1., 6168, 2, -1
*Equation
2
447, 3, 1., 6168, 3, -1
*Equation
2
448, 2, 1., 6168, 2, -1
*Equation
2
448, 3, 1., 6168, 3, -1
*Equation
2
450, 2, 1., 6168, 2, -1
*Equation
2
450, 3, 1., 6168, 3, -1
*Equation
2
457, 2, 1., 6168, 2, -1
*Equation
2
457, 3, 1., 6168, 3, -1
*Equation
2
458, 2, 1., 6168, 2, -1
*Equation
2
458, 3, 1., 6168, 3, -1
*Equation
2
575, 2, 1., 6168, 2, -1
*Equation
2
575, 3, 1., 6168, 3, -1
*Equation
2
578, 2, 1., 6168, 2, -1
*Equation
2
578, 3, 1., 6168, 3, -1
*Equation
2
595, 2, 1., 6168, 2, -1
*Equation
2
595, 3, 1., 6168, 3, -1
*Equation
2
803, 2, 1., 6168, 2, -1
*Equation
2
803, 3, 1., 6168, 3, -1
*Equation
2
804, 2, 1., 6168, 2, -1
*Equation
2
804, 3, 1., 6168, 3, -1
*Equation
2
1237, 2, 1., 6168, 2, -1
*Equation
2
1237, 3, 1., 6168, 3, -1
*Equation
2
1238, 2, 1., 6168, 2, -1
*Equation
2
1238, 3, 1., 6168, 3, -1
*Equation
2
1239, 2, 1., 6168, 2, -1
*Equation
2
1239, 3, 1., 6168, 3, -1
*Equation
2
1240, 2, 1., 6168, 2, -1
*Equation
2
1240, 3, 1., 6168, 3, -1
*Equation
2
1241, 2, 1., 6168, 2, -1
*Equation
2
1241, 3, 1., 6168, 3, -1
*Equation
2
2240, 2, 1., 6168, 2, -1
*Equation
2
2240, 3, 1., 6168, 3, -1
*Equation
2
2241, 2, 1., 6168, 2, -1
*Equation
2
2241, 3, 1., 6168, 3, -1
*Equation
2
2286, 2, 1., 6168, 2, -1
*Equation
2
2286, 3, 1., 6168, 3, -1
*Equation
2
2287, 2, 1., 6168, 2, -1
*Equation
2
2287, 3, 1., 6168, 3, -1
*Equation
2
2342, 2, 1., 6168, 2, -1
*Equation
2
2342, 3, 1., 6168, 3, -1
*Equation
2
2343, 2, 1., 6168, 2, -1
*Equation
2
2343, 3, 1., 6168, 3, -1
*Equation
2
3472, 2, 1., 6168, 2, -1
*Equation
2
3472, 3, 1., 6168, 3, -1
*Equation
2
3473, 2, 1., 6168, 2, -1
*Equation
2
3473, 3, 1., 6168, 3, -1
*Equation
2
3484, 2, 1., 6168, 2, -1
*Equation
2
3484, 3, 1., 6168, 3, -1
*Equation
2
3485, 2, 1., 6168, 2, -1
*Equation
2
3485, 3, 1., 6168, 3, -1
*Equation
2
3486, 2, 1., 6168, 2, -1
*Equation
2
3486, 3, 1., 6168, 3, -1
*Equation
2
3487, 2, 1., 6168, 2, -1
*Equation
2
3487, 3, 1., 6168, 3, -1
*Equation
2
3488, 2, 1., 6168, 2, -1
*Equation
2
3488, 3, 1., 6168, 3, -1
*Equation
2
3589, 2, 1., 6168, 2, -1
*Equation
2
3589, 3, 1., 6168, 3, -1
*Equation
2
3590, 2, 1., 6168, 2, -1
*Equation
2
3590, 3, 1., 6168, 3, -1
*Equation
2
3638, 2, 1., 6168, 2, -1
*Equation
2
3638, 3, 1., 6168, 3, -1
*Equation
2
3639, 2, 1., 6168, 2, -1
*Equation
2
3639, 3, 1., 6168, 3, -1
*Equation
2
3640, 2, 1., 6168, 2, -1
*Equation
2
3640, 3, 1., 6168, 3, -1
*Equation
2
3641, 2, 1., 6168, 2, -1
*Equation
2
3641, 3, 1., 6168, 3, -1
*Equation
2
3642, 2, 1., 6168, 2, -1
*Equation
2
3642, 3, 1., 6168, 3, -1
*Equation
2
6112, 2, 1., 6168, 2, -1
*Equation
2
6112, 3, 1., 6168, 3, -1
*Equation
2
6145, 2, 1., 6168, 2, -1
*Equation
2
6145, 3, 1., 6168, 3, -1
*Equation
2
6849, 2, 1., 6168, 2, -1
*Equation
2
6849, 3, 1., 6168, 3, -1
*Equation
2
6854, 2, 1., 6168, 2, -1
*Equation
2
6854, 3, 1., 6168, 3, -1
*Equation
2
7437, 2, 1., 6168, 2, -1
*Equation
2
7437, 3, 1., 6168, 3, -1
*Equation
2
7471, 2, 1., 6168, 2, -1
*Equation
2
7471, 3, 1., 6168, 3, -1
*Equation
2
7504, 2, 1., 6168, 2, -1
*Equation
2
7504, 3, 1., 6168, 3, -1
*Equation
2
7527, 2, 1., 6168, 2, -1
*Equation
2
7527, 3, 1., 6168, 3, -1
*Equation
2
7550, 2, 1., 6168, 2, -1
*Equation
2
7550, 3, 1., 6168, 3, -1
*Equation
2
7573, 2, 1., 6168, 2, -1
*Equation
2
7573, 3, 1., 6168, 3, -1
*Equation
2
7595, 2, 1., 6168, 2, -1
*Equation
2
7595, 3, 1., 6168, 3, -1
*Equation
2
8671, 2, 1., 6168, 2, -1
*Equation
2
8671, 3, 1., 6168, 3, -1
*Equation
2
8676, 2, 1., 6168, 2, -1
*Equation
2
8676, 3, 1., 6168, 3, -1
*Equation
2
10560, 2, 1., 6168, 2, -1
*Equation
2
10560, 3, 1., 6168, 3, -1
*Equation
2
10601, 2, 1., 6168, 2, -1
*Equation
2
10601, 3, 1., 6168, 3, -1
*Equation
2
10667, 2, 1., 6168, 2, -1
*Equation
2
10667, 3, 1., 6168, 3, -1
*Equation
2
10669, 2, 1., 6168, 2, -1
*Equation
2
10669, 3, 1., 6168, 3, -1
*Equation
2
10671, 2, 1., 6168, 2, -1
*Equation
2
10671, 3, 1., 6168, 3, -1
*Equation
2
10683, 2, 1., 6168, 2, -1
*Equation
2
10683, 3, 1., 6168, 3, -1
*Equation
2
10695, 2, 1., 6168, 2, -1
*Equation
2
10695, 3, 1., 6168, 3, -1
*Equation
2
10718, 2, 1., 6168, 2, -1
*Equation
2
10718, 3, 1., 6168, 3, -1
*Equation
2
10758, 2, 1., 6168, 2, -1
*Equation
2
10758, 3, 1., 6168, 3, -1
*Equation
2
10824, 2, 1., 6168, 2, -1
*Equation
2
10824, 3, 1., 6168, 3, -1
*Equation
2
10826, 2, 1., 6168, 2, -1
*Equation
2
10826, 3, 1., 6168, 3, -1
*Equation
2
10828, 2, 1., 6168, 2, -1
*Equation
2
10828, 3, 1., 6168, 3, -1
*Equation
2
10840, 2, 1., 6168, 2, -1
*Equation
2
10840, 3, 1., 6168, 3, -1
*Equation
2
10863, 2, 1., 6168, 2, -1
*Equation
2
10863, 3, 1., 6168, 3, -1
*Equation
2
10886, 2, 1., 6168, 2, -1
*Equation
2
10886, 3, 1., 6168, 3, -1
*Equation
2
10926, 2, 1., 6168, 2, -1
*Equation
2
10926, 3, 1., 6168, 3, -1
*Equation
2
10992, 2, 1., 6168, 2, -1
*Equation
2
10992, 3, 1., 6168, 3, -1
*Equation
2
10994, 2, 1., 6168, 2, -1
*Equation
2
10994, 3, 1., 6168, 3, -1
*Equation
2
10996, 2, 1., 6168, 2, -1
*Equation
2
10996, 3, 1., 6168, 3, -1
*Equation
2
11008, 2, 1., 6168, 2, -1
*Equation
2
11008, 3, 1., 6168, 3, -1
*Equation
2
11053, 2, 1., 6168, 2, -1
*Equation
2
11053, 3, 1., 6168, 3, -1
*Equation
2
11066, 2, 1., 6168, 2, -1
*Equation
2
11066, 3, 1., 6168, 3, -1
*Equation
2
14305, 2, 1., 6168, 2, -1
*Equation
2
14305, 3, 1., 6168, 3, -1
*Equation
2
14344, 2, 1., 6168, 2, -1
*Equation
2
14344, 3, 1., 6168, 3, -1
*Equation
2
14564, 2, 1., 6168, 2, -1
*Equation
2
14564, 3, 1., 6168, 3, -1
*Equation
2
14616, 2, 1., 6168, 2, -1
*Equation
2
14616, 3, 1., 6168, 3, -1
*Equation
2
14618, 2, 1., 6168, 2, -1
*Equation
2
14618, 3, 1., 6168, 3, -1
*Equation
2
14619, 2, 1., 6168, 2, -1
*Equation
2
14619, 3, 1., 6168, 3, -1
*Equation
2
14642, 2, 1., 6168, 2, -1
*Equation
2
14642, 3, 1., 6168, 3, -1
*Equation
2
14684, 2, 1., 6168, 2, -1
*Equation
2
14684, 3, 1., 6168, 3, -1
*Equation
2
14706, 2, 1., 6168, 2, -1
*Equation
2
14706, 3, 1., 6168, 3, -1
*Equation
2
14728, 2, 1., 6168, 2, -1
*Equation
2
14728, 3, 1., 6168, 3, -1
*Equation
2
14750, 2, 1., 6168, 2, -1
*Equation
2
14750, 3, 1., 6168, 3, -1
*Equation
2
14772, 2, 1., 6168, 2, -1
*Equation
2
14772, 3, 1., 6168, 3, -1
*Equation
2
14784, 2, 1., 6168, 2, -1
*Equation
2
14784, 3, 1., 6168, 3, -1
*Equation
2
15205, 2, 1., 6168, 2, -1
*Equation
2
15205, 3, 1., 6168, 3, -1
*Equation
2
15372, 2, 1., 6168, 2, -1
*Equation
2
15372, 3, 1., 6168, 3, -1
*Equation
2
15375, 2, 1., 6168, 2, -1
*Equation
2
15375, 3, 1., 6168, 3, -1
*Equation
2
15376, 2, 1., 6168, 2, -1
*Equation
2
15376, 3, 1., 6168, 3, -1
*Equation
2
15598, 2, 1., 6168, 2, -1
*Equation
2
15598, 3, 1., 6168, 3, -1
*Equation
2
15620, 2, 1., 6168, 2, -1
*Equation
2
15620, 3, 1., 6168, 3, -1
*Equation
2
15642, 2, 1., 6168, 2, -1
*Equation
2
15642, 3, 1., 6168, 3, -1
*Equation
2
15664, 2, 1., 6168, 2, -1
*Equation
2
15664, 3, 1., 6168, 3, -1
*Equation
2
15686, 2, 1., 6168, 2, -1
*Equation
2
15686, 3, 1., 6168, 3, -1
*Equation
2
15698, 2, 1., 6168, 2, -1
*Equation
2
15698, 3, 1., 6168, 3, -1
*Equation
2
16038, 2, 1., 6168, 2, -1
*Equation
2
16038, 3, 1., 6168, 3, -1
*Equation
2
16498, 2, 1., 6168, 2, -1
*Equation
2
16498, 3, 1., 6168, 3, -1
*Equation
2
16792, 2, 1., 6168, 2, -1
*Equation
2
16792, 3, 1., 6168, 3, -1
*Equation
2
16972, 2, 1., 6168, 2, -1
*Equation
2
16972, 3, 1., 6168, 3, -1
*Material, name=CYCOM_Prepreg
*Density
 1.31e-09
*Elastic, type=ENGINEERINGCONSTANTS
 156000.,9700.,9700.,0.344,0.344,0.344,5300.,3640.
 5300,0,
*Material, name="Rohacell 71 Rima"
*Density
 7.5e-11
*Elastic
 105., 0.3,,
*Boundary
panel0_left_node_set_no_corner, 2, 2
panel0_left_node_set_no_corner, 3, 3
*Step, perturbation
*Buckle
3
*Cload
panel0_Loading_Node_Right, 2, 0
panel0_Loading_Node_Right, 3, -158025
*NODE PRINT,GLOBAL=NO, NSET=Nall
U
**EL PRINT,ELSET=Eall,GLOBAL=YES
**S,E
*NODE FILE,GLOBAL=NO,OUTPUT=3D
U
*EL FILE,NSET=Nall
E
*End Step
