** ***************************************************************************
**   Written by : FEMAP
**   Version    : 8.00
**   From Model : C:\Femap80a\Work\AxiSymA1Abq.MOD
**   Date       : Mon Feb 03 23:46:12 2014
** ***************************************************************************
** 
*NODE, NSET=GLOBAL
       1,   0.3399993,   4.8538827,          0.
       2,   0.3560707,   4.7583075,          0.
       3,   0.3721421,   4.6627322,          0.
       4,   0.3882135,    4.567157,          0.
       5,   0.4042849,   4.4715817,          0.
       6,   0.4203563,   4.3760064,          0.
       7,   0.4364277,   4.2804312,          0.
       8,   0.4524991,   4.1848559,          0.
       9,   0.4685705,   4.0892807,          0.
      10,   0.4846419,   3.9937054,          0.
      11,   0.5007133,   3.8981301,          0.
      12,   0.5167847,   3.8025549,          0.
      13,   0.5328561,   3.7069796,          0.
      14,   0.5489275,   3.6114043,          0.
      15,   0.5649989,   3.5158291,          0.
      16,   0.5249989,   3.5158291,          0.
      17,    0.489999,   3.5158291,          0.
      18,   0.4739276,   3.6114043,          0.
      19,   0.4578562,   3.7069796,          0.
      20,   0.4417848,   3.8025549,          0.
** ... 296 like lines cut
*ELEMENT, TYPE=CAX6, ELSET=P1
      1,     16,     15,     14,    104,     58,     59
*ELEMENT, TYPE=CAX8, ELSET=P1
      2,     17,     16,     14,     18,     62,     59,     60,     63
      3,     18,     14,     13,     19,     60,     56,     57,     64
      4,     19,     13,     12,     20,     57,     54,     55,     65
      5,     20,     12,     11,     21,     55,     52,     53,     66
      6,     21,     11,     10,     22,     53,     50,     51,     67
      7,     22,     10,      9,     23,     51,     48,     49,     68
      8,     23,      9,      8,     24,     49,     46,     47,     69
      9,     24,      8,      7,     25,     47,     44,     45,     70
     10,     25,      7,      6,     26,     45,     42,     43,     71
     11,     26,      6,      5,     27,     43,     40,     41,     72
     12,     27,      5,      4,     28,     41,     38,     39,     73
     13,     28,      4,      3,     29,     39,     36,     37,     74
     14,     29,      3,      2,     30,     37,     34,     35,     75
     15,     30,      2,      1,    247,     35,     32,    144,     76
     16,    169,     88,     87,    168,    126,    123,    124,    227
     17,     91,    168,     87,     92,    128,    124,    125,    129
     18,     92,     87,     86,     93,    125,    121,    122,    130
     19,     93,     86,     85,     94,    122,    119,    120,    131
     20,     94,     85,     84,     95,    120,    117,    118,    132
     21,     95,     84,     83,     96,    118,    115,    116,    133
** ... 34 like lines cut
*ELEMENT, TYPE=CAX6, ELSET=P1
     56,    280,    279,    268,    305,    289,    290
     57,    268,    267,    149,    287,    284,    285
*ELEMENT, TYPE=CAX8, ELSET=P1
     58,    149,    150,    264,    280,    283,    281,    282,    286
*ELEMENT, TYPE=CAX6, ELSET=P1
     59,    280,    268,    149,    290,    285,    286
*ELEMENT, TYPE=CAX8, ELSET=P1
     60,    308,    307,    274,    275,    322,    320,    321,    324
     61,    309,    308,    275,    318,    323,    324,    338,    326
     62,    310,    309,    318,    317,    325,    326,    337,    328
     63,    311,    310,    317,    316,    327,    328,    336,    330
     64,    312,    311,    316,    315,    329,    330,    335,    332
     65,    313,    312,    315,    314,    331,    332,    334,    333
*ELSET, ELSET=OUT_CONT, GENERATE
1,65,1
** FEMAP Property 1 : ParAxi
*SOLID SECTION, ELSET=P1, MATERIAL=M1
** FEMAP Material 1 : Stainless Steel Annealed
*MATERIAL, NAME=M1
*ELASTIC, TYPE=ISOTROPIC
 29000000.,   0.31818,       70.
*EXPANSION, TYPE=ISO
    8.3E-6,       70.
*DENSITY
0.00074092
*SPECIFIC HEAT
    42.504,       70.
** The following CONDUCTIVITY statement works.
*CONDUCTIVITY
0.55

**The following CONDUCTIVITY statement does not works.
**CONDUCTIVITY
**293,0.55
**1500,0.55

** Load Step 1 -------------------------------------------------------
*STEP, INC=100
*HEAT TRANSFER, STEADY STATE
       0.1,        1.
*NODE PRINT
 RFLE
*EL PRINT, ELSET=OUT_CONT, POSITION=CENTROIDAL
  HFL
*FILE FORMAT, ASCII
*NODE FILE, FREQUENCY=10
   NT
*EL FILE, ELSET=OUT_CONT, FREQUENCY=10,POSITION=CENTROIDAL
  HFL
*BOUNDARY
  272,   11,   ,      500.
  298,   11,   ,      500.
  307,   11,   ,      500.
  308,   11,   ,      500.
  309,   11,   ,      500.
  310,   11,   ,      500.
  311,   11,   ,      500.
  312,   11,   ,      500.
  313,   11,   ,      500.
  322,   11,   ,      500.
  323,   11,   ,      500.
  325,   11,   ,      500.
  327,   11,   ,      500.
  329,   11,   ,      500.
  331,   11,   ,      500.

*CFLUX
  143,   11,       0.9
  147,   11,       0.9
  246,   11,       0.9
  251,   11,       0.9
  252,   11,       0.9
  253,   11,       0.9
  255,   11,       0.9
  262,   11,       0.9
  263,   11,       0.9

*END STEP
