*Heading
 E:\COMPOSITE\piastra_sr8.inp
*Node
1, 0, 0, 0
2, 10, 0, 0
3, 10, 10, 0
4, 0, 10, 0
**5, 0, 10, 5
**6, 10, 10, 5
**7, 10, 20, 5
**8, 0, 20, 5
9, 2.499999999995364, 0, 0
10, 4.999999999992399, 0, 0
11, 7.4999999999962, 0, 0
12, 1.249999999997682, 0, 0
13, 3.749999999993881, 0, 0
14, 6.2499999999943, 0, 0
15, 8.749999999998099, 0, 0
16, 10, 2.499999999995364, 0
17, 10, 4.999999999992399, 0
18, 10, 7.4999999999962, 0
19, 10, 1.249999999997682, 0
20, 10, 3.749999999993881, 0
21, 10, 6.2499999999943, 0
22, 10, 8.749999999998099, 0
23, 7.499999999999995, 10, 0
24, 4.999999999999996, 10, 0
25, 2.499999999999998, 10, 0
26, 8.749999999999996, 10, 0
27, 6.249999999999995, 10, 0
28, 3.749999999999996, 10, 0
** ... 57 like lines cut
*Element, type=S8R, ELSET=PIASTRA
58, 2, 16, 37, 11, 19, 46, 47, 15
60, 11, 37, 38, 10, 47, 49, 50, 14
62, 10, 38, 39, 9, 50, 52, 53, 13
64, 9, 39, 32, 1, 53, 55, 36, 12
66, 16, 17, 40, 37, 20, 57, 58, 46
68, 37, 40, 41, 38, 58, 60, 61, 49
70, 38, 41, 42, 39, 61, 63, 64, 52
72, 39, 42, 31, 32, 64, 66, 35, 55
74, 17, 18, 43, 40, 21, 68, 69, 57
76, 40, 43, 44, 41, 69, 71, 72, 60
78, 41, 44, 45, 42, 72, 74, 75, 63
80, 42, 45, 30, 31, 75, 77, 34, 66
82, 18, 3, 23, 43, 22, 26, 79, 68
84, 43, 23, 24, 44, 79, 27, 81, 71
86, 44, 24, 25, 45, 81, 28, 83, 74
88, 45, 25, 4, 30, 83, 29, 33, 77
*NSET, NSET=CLAMP
1, 36,32,35,31,34,30,33,4
*NSET, NSET=NODES, GENERATE
1,85
*NSET, NSET=LOADING_EDGE
2,19,16,20,17,21,18,22,3
*BOUNDARY
CLAMP, 1, 6
**
*ORIENTATION,name=OR0,system=RECTANGULAR
1.,0.,0.,0.,1.,0.

*ORIENTATION,name=OR135,system=RECTANGULAR
0.7071,-0.7071,0.,0.7071,0.7071,0.

*ORIENTATION,name=OR45,system=RECTANGULAR
0.7071,0.7071,0.,-0.7071,0.7071,0.

*ORIENTATION,name=OR90,system=RECTANGULAR
0.0,1.0,0.0,-1.0,0.0, 0
**
*MATERIAL, NAME=IMA
*ELASTIC,TYPE=ENGINEERING CONSTANTS
154000, 8500, 8500, 0.35, 0.35, 0.26488095, 4200
4200, 3360
*SHELL SECTION,ELSET=PIASTRA,COMPOSITE,OFFSET=-0.5
0.184,,IMA,OR0
0.184,,IMA,OR135
0.184,,IMA,OR45
0.184,,IMA,OR135
0.184,,IMA,OR0
*STEP
*STATIC
*CLOAD
LOADING_EDGE,1,1000.
*EL PRINT,ELSET=PIASTRA
S, E
*EL PRINT,ELSET=PIASTRA
S, E
*NODE PRINT, NSET=NODES
U
*EL FILE
S, E
*NODE FILE
U
*END STEP

