*Heading
plate
** Job name: Plate Model name: Model-1
**
*Node, NSET=Nall
      1,          10.,          25.,           0.
      2,          4.5,          25.,           0.
      3,          -1.,          25.,           0.
      4,         -6.5,          25.,           0.
      5,         -12.,          25.,           0.
      6,        -17.5,          25.,           0.
      7,         -23.,          25.,           0.
      8,        -28.5,          25.,           0.
      9,         -34.,          25.,           0.
     10,        -39.5,          25.,           0.
     11,         -45.,          25.,           0.
     12,          10.,    19.166666,           0.
     13,          4.5,    19.166666,           0.
     14,          -1.,    19.166666,           0.
     15,         -6.5,    19.166666,           0.
     16,         -12.,    19.166666,           0.
     17,        -17.5,    19.166666,           0.
     18,         -23.,    19.166666,           0.
     19,        -28.5,    19.166666,           0.
     20,         -34.,    19.166666,           0.
** ... 57 like lines cut
*ELEMENT, TYPE=S4R, ELSET=EALL
 1,  1,  2, 13, 12
 2,  2,  3, 14, 13
 3,  3,  4, 15, 14
 4,  4,  5, 16, 15
 5,  5,  6, 17, 16
 6,  6,  7, 18, 17
 7,  7,  8, 19, 18
 8,  8,  9, 20, 19
 9,  9, 10, 21, 20
10, 10, 11, 22, 21
11, 12, 13, 24, 23
12, 13, 14, 25, 24
13, 14, 15, 26, 25
14, 15, 16, 27, 26
15, 16, 17, 28, 27
16, 17, 18, 29, 28
17, 18, 19, 30, 29
18, 19, 20, 31, 30
19, 20, 21, 32, 31
20, 21, 22, 33, 32
** ... 40 like lines cut
**----------------------------------------------------------------------
**BOUNDARY CONDITIONS
*NSET, NSET=FIX
1,12,23,34,45,56,67
 *BOUNDARY
FIX,1,6
**----------------------------------------------------------------------
** MATERIAL SECTION
*MATERIAL,NAME=EL
*ELASTIC
 210000.0 ,       .3
*DENSITY
7.8E-9
*SHELL SECTION,ELSET=EALL,MATERIAL=EL 
3.0
**-----------------------------------------------------------------------
 ** LOAD CONDITIONS
*NSET,NSET=LOAD
11,22,33,44,55,66,77
**------------------------------------------------------------------------
**LOADCASE DEFINITION
*STEP
*STATIC
*CLOAD
LOAD,3,100.
**---------PRINT-TO-FILE---------------------------------------
 *NODE PRINT,NSET=NALL
U
*EL PRINT,ELSET=EALL
S
*NODE FILE
U
*EL FILE
S
*END STEP
  
  