**=============================================================================
**
**             PLATE
**
**=============================================================================
*NODE
**   ID    |   x    |   Y    |      Z

10101      ,    0.0000,  0.0000,  0.0000
10102      ,    0.0625,  0.0000,  0.0000
10103      ,    0.125,  0.0000,  0.0000
10104      ,    0.1875,  0.0000,  0.0000
10105      ,    0.25,  0.0000,  0.0000
10106      ,    0.3125,  0.0000,  0.0000
10107      ,    0.375,  0.0000,  0.0000
10108      ,    0.4375,  0.0000,  0.0000
10109      ,    0.5,  0.0000,  0.0000

10201      ,    0.0000,  0.1000,  0.0000
10202      ,    0.0625,  0.1000,  0.0000
10203      ,    0.125,  0.1000,  0.0000
10204      ,    0.1875,  0.1000,  0.0000
10205      ,    0.25,  0.1000,  0.0000
10206      ,    0.3125,  0.1000,  0.0000
10207      ,    0.375,  0.1000,  0.0000
10208      ,    0.4375,  0.1000,  0.0000
10209      ,    0.5,  0.1000,  0.0000

10301      ,    0.0000,  0.2000,  0.0000
10302      ,    0.0625,  0.2000,  0.0000
10303      ,    0.125,  0.2000,  0.0000
10304      ,    0.1875,  0.20000,  0.0000
10305      ,    0.25,  0.20000,  0.0000
10306      ,    0.3125,  0.20000,  0.0000
10307      ,    0.375,  0.20000,  0.0000
10308      ,    0.4375,  0.20000,  0.0000
10309      ,    0.5,  0.20000,  0.0000

10401      ,    0.0000,  0.30000,  0.0000
10402      ,    0.0625,  0.30000,  0.0000
10403      ,    0.125,  0.30000,  0.0000
10404      ,    0.1875,  0.30000,  0.0000
10405      ,    0.25,  0.30000,  0.0000
10406      ,    0.3125,  0.30000,  0.0000
10407      ,    0.375,  0.30000,  0.0000
10408      ,    0.4375,  0.30000,  0.0000
10409      ,    0.5,  0.30000,  0.0000

10501      ,    0.0000,  0.40000,  0.0000
10502      ,    0.0625,  0.40000,  0.0000
10503      ,    0.125,  0.40000,  0.0000
10504      ,    0.1875,  0.40000,  0.0000
10505      ,    0.25,  0.40000,  0.0000
10506      ,    0.3125,  0.40000,  0.0000
10507      ,    0.375,  0.40000,  0.0000
10508      ,    0.4375,  0.40000,  0.0000
10509      ,    0.5,  0.40000,  0.0000

10601      ,    0.0000,  0.50000,  0.0000
10602      ,    0.0625,  0.50000,  0.0000
10603      ,    0.125,  0.50000,  0.0000
10604      ,    0.1875,  0.50000,  0.0000
10605      ,    0.25,  0.50000,  0.0000
10606      ,    0.3125,  0.50000,  0.0000
10607      ,    0.375,  0.50000,  0.0000
10608      ,    0.4375,  0.50000,  0.0000
10609      ,    0.5,  0.50000,  0.0000

10701      ,    0.0000,  0.60000,  0.0000
10702      ,    0.0625,  0.60000,  0.0000
10703      ,    0.125,  0.60000,  0.0000
10704      ,    0.1875,  0.60000,  0.0000
10705      ,    0.25,  0.60000,  0.0000
10706      ,    0.3125,  0.60000,  0.0000
10707      ,    0.375,  0.60000,  0.0000
10708      ,    0.4375,  0.60000,  0.0000
10709      ,    0.5,  0.60000,  0.0000

10801      ,    0.0000,  0.70000,  0.0000
10802      ,    0.0625,  0.70000,  0.0000
10803      ,    0.125,  0.70000,  0.0000
10804      ,    0.1875,  0.70000,  0.0000
10805      ,    0.25,  0.70000,  0.0000
10806      ,    0.3125,  0.70000,  0.0000
10807      ,    0.375,  0.70000,  0.0000
10808      ,    0.4375,  0.70000,  0.0000
10809      ,    0.5,  0.70000,  0.0000

10901      ,    0.0000,  0.80000,  0.0000
10902      ,    0.0625,  0.80000,  0.0000
10903      ,    0.125,  0.8000,  0.0000
10904      ,    0.1875,  0.80000,  0.0000
10905      ,    0.25,  0.80000,  0.0000
10906      ,    0.3125,  0.80000,  0.0000
10907      ,    0.375,  0.80000,  0.0000
10908      ,    0.4375,  0.80000,  0.0000
10909      ,    0.5,  0.80000,  0.0000

11001      ,    0.0000,  0.90000,  0.0000
11002      ,    0.0625,  0.90000,  0.0000
11003      ,    0.125,  0.90000,  0.0000
11004      ,    0.1875,  0.90000,  0.0000
11005      ,    0.25,  0.90000,  0.0000
11006      ,    0.3125,  0.90000,  0.0000
11007      ,    0.375,  0.90000,  0.0000
11008      ,    0.4375,  0.90000,  0.0000
11009      ,    0.5,  0.90000,  0.0000

11101      ,    0.0000,  1.0000,  0.0000
11102      ,    0.0625,  1.0000,  0.0000
11103      ,    0.125,  1.0000,  0.0000
11104      ,    0.1875,  1.0000,  0.0000
11105      ,    0.25,  1.0000,  0.0000
11106      ,    0.3125,  1.0000,  0.0000
11107      ,    0.375,  1.0000,  0.0000
11108      ,    0.4375,  1.0000,  0.0000
11109      ,    0.5,  1.0000,  0.000




*NSET,NSET=N1
10101,10102,10103,10104,10105, 10106, 10107, 10108, 10109
*NSET,NSET=N2
11101,11102,11103,11104,11105, 11106, 11107, 11108, 11109
*NSET,NSET=N3
10101,10201,10301,10401,10501,10601,10701,10801,10901,11001,11101
*NSET,NSET=N4
10109,10209,10309,10409,10509,10609,10709,10809,10909,11009,11109


*Element, type=S4, ELSET=PLATE
**   ID    |   i1    |   i2    |   i3    |   i4    |

10101   ,  10101 , 10102 ,  10202 , 10201
        
10102   , 10102  , 10103 ,  10203 ,  10202
        
10103   ,  10103 , 10104 ,  10204 ,  10203
        
10104   , 10104  , 10105 ,  10205 ,  10204

10105   , 10105  , 10106 ,  10206  , 10205

10106   , 10106  , 10107 ,  10207  , 10206

10107   , 10107  , 10108 ,  10208  , 10207

10108   , 10108  , 10109 ,  10209  , 10208
        

        

        

10201   ,  10201  , 10202 ,  10302 ,  10301
        
10202   ,  10202  , 10203 ,  10303 ,  10302
        
10203   ,  10203  , 10204 ,  10304 ,  10303
        
10204   ,  10204  , 10205 ,  10305 ,  10304
 
10205   , 10205  , 10206 ,  10306  , 10305

10206   , 10206  , 10207 ,  10307  , 10306

10207   , 10207  , 10208 ,  10308  , 10307

10208   , 10208  , 10209 ,  10309  , 10308
              

       

        

10301   ,  10301 ,  10302 ,  10402 ,  10401
       
10302   ,  10302 ,  10303 ,  10403 ,  10402
        
10303   ,  10303 ,  10304 ,  10404 ,  10403
        
10304   ,  10304 ,  10305 ,  10405 ,  10404

10305   , 10305  , 10306 ,  10406  , 10405

10306   , 10306  , 10307 ,  10407  , 10406

10307   , 10307  , 10308 ,  10408  , 10407

10308   , 10308  , 10309 ,  10409  , 10408
        
       


      

10401   ,  10401  , 10402 ,  10502 ,  10501
       
10402   ,  10402  , 10403 ,  10503 ,  10502
       
10403   ,  10403  , 10404 ,  10504 ,  10503
       
10404   ,  10404  , 10405 ,  10505 ,  10504

10405   , 10405  , 10406 ,  10506  , 10505
            
10406   , 10406  , 10407 ,  10507  , 10506
            
10407   , 10407  , 10408 ,  10508  , 10507
            
10408   , 10408  , 10409 ,  10509  , 10508
            
       

       

        

10501   ,  10501  , 10502 ,  10602  , 10601
        
10502   ,  10502  , 10503 ,  10603  , 10602
        
10503   ,  10503  , 10504 ,  10604  , 10603
        
10504   ,  10504  , 10505 ,  10605  , 10604

10505   , 10505  , 10506 ,  10606  , 10605
  
10506   , 10506  , 10507 ,  10607  , 10606
  
10507   , 10507  , 10508 ,  10608  , 10607
  
10508   , 10508  , 10509 ,  10609  , 10608
        
        

        

        

10601   ,  10601  , 10602 , 10702   ,10701
   
10602   ,  10602  , 10603 ,  10703  , 10702
        
10603   ,  10603  , 10604 ,  10704  , 10703
        
10604   ,  10604  , 10605 ,  10705  , 10704

10605   , 10605  , 10606 ,  10706  , 10705
  
10606   , 10606  , 10607 ,  10707  , 10706
  
10607   , 10607  , 10608 ,  10708  , 10707
 
10608   , 10608  , 10609 ,  10709  , 10708
  
        

        


10701   ,  10701  , 10702 ,  10802 ,  10801
       
10702   ,  10702  , 10703 ,  10803 ,  10802
        
10703   ,  10703  , 10704 ,  10804 ,  10803
        
10704   ,  10704  , 10705 ,  10805 ,  10804

10705   , 10705  , 10706 ,  10806  , 10805

10706   , 10706  , 10707 ,  10807  , 10806
  
10707   , 10707  , 10708 ,  10808  , 10807
 
10708   , 10708  , 10709 ,  10809  , 10808
        
       

       

        

10801   ,  10801  , 10802 ,  10902 ,  10901
        
10802   ,  10802  , 10803 ,  10903 ,  10902
       
10803   ,  10803  , 10804 ,  10904 ,  10903
        
10804   ,  10804  , 10805 ,  10905 ,  10904

10805   , 10805  , 10806 ,  10906  , 10905
  
10806   , 10806  , 10807 ,  10907  , 10906
  
10807   , 10807  , 10808 ,  10908  , 10907
 
10808   , 10808  , 10809 ,  10909  , 10908
        
       


       

10901   ,  10901  , 10902 ,  11002 ,  11001
       
10902   ,  10902  , 10903 ,  11003 , 11002
       
10903   ,  10903  , 10904 ,  11004 ,  11003
       
10904   ,  10904  , 10905 ,  11005 ,  11004

10905   , 10905  , 10906 ,  11006  , 11005
 
10906   , 10906  , 10907 ,  11007  , 11006
 
10907   , 10907  , 10908 ,  11008  , 11007
 
10908   , 10908  , 10909 ,  11009  , 11008
        

        

11001   ,  11001  , 11002 ,  11102 ,  11101
      
11002   ,  11002  , 11003 ,  11103 ,  11102
       
11003   ,  11003  , 11004 ,  11104 ,  11103
       
11004   ,  11004  , 11005 ,  11105 ,  11104

11005   , 11005  , 11006 ,  11106  , 11105
 
11006   , 11006  , 11007 ,  11107  , 11106
  
11007   , 11007  , 11008 ,  11108  , 11107
  
11008   , 11008  , 11009 ,  11109  , 11108
                  

       



        

**========================================
*BOUNDARY
N1,1,3
*BOUNDARY
N3,1,6
*BOUNDARY
N4,1,3
*BOUNDARY
N2,1,3

**=================================
*MATERIAL, NAME=ALUMINIUM
*DENSITY
2800
*ELASTIC, TYPE=ISO
69E9, 0.3

**==================================
*SHELL SECTION,MATERIAL=ALUMINIUM,ELSET=PLATE
0.001
**
*STEP
*FREQUENCY 
6
*NODE FILE
U
*END STEP
**=============================================================================
**=============================================================================