*NODE, NSET=Nall
1, -25.0000000, 10.00000000, -25.00000000
2, -25.0000000, 10.00000000, -15.00000000
3, -25.0000000, 10.00000000, -5.00000000
4, -25.0000000, 10.00000000, 5.00000000
5, -25.0000000, 10.00000000, 15.00000000
6, -25.0000000, 20.00000000, -25.00000000
7, -25.0000000, 20.00000000, -15.00000000
8, -25.0000000, 20.00000000, -5.00000000
9, -25.0000000, 20.00000000, 5.00000000
10, -25.0000000, 20.00000000, 15.00000000
11, -25.0000000, 30.00000000, -25.00000000
12, -25.0000000, 30.00000000, -15.00000000
13, -25.0000000, 30.00000000, -5.00000000
14, -25.0000000, 30.00000000, 5.00000000
15, -25.0000000, 30.00000000, 15.00000000
16, -25.0000000, 40.00000000, -25.00000000
17, -25.0000000, 40.00000000, -15.00000000
18, -25.0000000, 40.00000000, -5.00000000
19, -25.0000000, 40.00000000, 5.00000000
20, -25.0000000, 40.00000000, 15.00000000
** ... 105 like lines cut
*ELEMENT, TYPE=B31R, ELSET=BARS_03
1, 11,  12
*ELEMENT, TYPE=B31R, ELSET=BARS_03
2, 11,  16
*ELEMENT, TYPE=B31R, ELSET=BARS_03
3, 11,  36
*ELEMENT, TYPE=B31R, ELSET=BARS_03
4, 11,  6
*ELEMENT, TYPE=B31R, ELSET=BARS_01
5, 12,  13
*ELEMENT, TYPE=B31R, ELSET=BARS_01
6, 12,  17
*ELEMENT, TYPE=B31R, ELSET=BARS_01
7, 12,  37
*ELEMENT, TYPE=B31R, ELSET=BARS_01
8, 12,  7
*ELEMENT, TYPE=B31R, ELSET=BARS_01
9, 13,  14
*ELEMENT, TYPE=B31R, ELSET=BARS_01
10, 13,  18
*ELEMENT, TYPE=B31R, ELSET=BARS_01
11, 13,  38
*ELEMENT, TYPE=B31R, ELSET=BARS_01
12, 13,  8
*ELEMENT, TYPE=B31R, ELSET=BARS_02
13, 14,  15
*ELEMENT, TYPE=B31R, ELSET=BARS_02
14, 14,  19
*ELEMENT, TYPE=B31R, ELSET=BARS_02
15, 14,  39
*ELEMENT, TYPE=B31R, ELSET=BARS_02
16, 14,  9
*ELEMENT, TYPE=B31R, ELSET=BARS_02
17, 14,  18
*ELEMENT, TYPE=B31R, ELSET=BARS_02
18, 14,  20
*ELEMENT, TYPE=B31R, ELSET=BARS_02
19, 14,  38
*ELEMENT, TYPE=B31R, ELSET=BARS_02
20, 14,  40
** ... 2098 like lines cut
*MATERIAL,NAME=Steel
*ELASTIC
4176000,.3
*BEAM SECTION,ELSET=BARS_01,MATERIAL=Steel,SECTION=RECT
0.1, 0.1
-0.15433221,-0.832050294337844,0.554700196225229
*BEAM SECTION,ELSET=BARS_02,MATERIAL=Steel,SECTION=RECT
0.2, 0.2
-0.15433221,-0.832050294337844,0.554700196225229
*BEAM SECTION,ELSET=BARS_03,MATERIAL=Steel,SECTION=RECT
0.25, 0.25
-0.15433221,-0.832050294337844,0.554700196225229
*BEAM SECTION,ELSET=BARS_06,MATERIAL=Steel,SECTION=RECT
0.55, 0.55
-0.15433221,-0.832050294337844,0.554700196225229
*BOUNDARY
21, 1, 3
22, 1, 3
23, 1, 3
24, 1, 3
25, 1, 3
46, 1, 3
47, 1, 3
48, 1, 3
49, 1, 3
50, 1, 3
71, 1, 3
72, 1, 3
73, 1, 3
74, 1, 3
75, 1, 3
96, 1, 3
97, 1, 3
98, 1, 3
99, 1, 3
100, 1, 3
** ... 5 like lines cut
*STEP
*STATIC
*CLOAD
1,2,1.0
2,2,1.0
3,2,1.0
4,2,1.0
5,2,1.0
26,2,1.0
27,2,1.0
28,2,1.0
29,2,1.0
30,2,1.0
51,2,1.0
52,2,1.0
53,2,1.0
54,2,1.0
55,2,1.0
76,2,1.0
77,2,1.0
78,2,1.0
79,2,1.0
80,2,1.0
** ... 5 like lines cut
*NODE PRINT,NSET=Nall
U
*EL PRINT,ELSET=BARS_01
S, E
*NODE FILE, output=3D
U, RF
*EL FILE
S, E
*END STEP