*Heading
**
**Push Block - units IPS | Domax Material | Contact & Rigid Body 
**
*node, nset=nall
 1,9.316438060000e+00,-1.900389900000e+01,1.156249656000e+01
 2,1.131445571750e+01,-1.900389900000e+01,1.156249656000e+01
 3,1.131445571750e+01,-2.100192650000e+01,1.156249656000e+01
 4,9.316438060000e+00,-2.100192650000e+01,1.156249656000e+01
 5,1.331247337500e+01,-1.900389900000e+01,1.156249656000e+01
 6,1.331247337500e+01,-2.100192650000e+01,1.156249656000e+01
 7,1.531049103250e+01,-1.900389900000e+01,1.156249656000e+01
 8,1.531049103250e+01,-2.100192650000e+01,1.156249656000e+01
 9,1.730850869000e+01,-1.900389900000e+01,1.156249656000e+01
 10,1.730850869000e+01,-2.100192650000e+01,1.156249656000e+01
 11,1.131445571750e+01,-2.299995400000e+01,1.156249656000e+01
 12,9.316438060000e+00,-2.299995400000e+01,1.156249656000e+01
 13,1.331247337500e+01,-2.299995400000e+01,1.156249656000e+01
 14,1.531049103250e+01,-2.299995400000e+01,1.156249656000e+01
 15,1.730850869000e+01,-2.299995400000e+01,1.156249656000e+01
 16,1.131445571750e+01,-2.499798150000e+01,1.156249656000e+01
 17,9.316438060000e+00,-2.499798150000e+01,1.156249656000e+01
 18,1.331247337500e+01,-2.499798150000e+01,1.156249656000e+01
 19,1.531049103250e+01,-2.499798150000e+01,1.156249656000e+01
 20,1.730850869000e+01,-2.499798150000e+01,1.156249656000e+01
** ... 7804 like lines cut
*I, type=s4, elset=eall
1, 1, 2, 3, 4
2, 2, 5, 6, 3
3, 5, 7, 8, 6
4, 7, 9, 10, 8
5, 4, 3, 11, 12
6, 3, 6, 13, 11
7, 6, 8, 14, 13
8, 8, 10, 15, 14
9, 12, 11, 16, 17
10, 11, 13, 18, 16
11, 13, 14, 19, 18
12, 14, 15, 20, 19
13, 17, 16, 21, 22
14, 16, 18, 23, 21
15, 18, 19, 24, 23
16, 19, 20, 25, 24
*element, type=s8, elset=eall
 17, 26, 27, 28, 29, 3092, 3093, 3094, 3095
 18, 27, 30, 31, 28, 3097, 3098, 3099, 3093
 19, 30, 150, 33, 31, 3101, 3102, 3103, 3098
 20, 150, 34, 35, 33, 3105, 3106, 3107, 3102
 21, 34, 36, 37, 35, 3109, 3110, 3111, 3106
 22, 36, 38, 39, 37, 3113, 3114, 3115, 3110
 23, 38, 40, 41, 39, 3117, 3118, 3119, 3114
 24, 40, 155, 43, 41, 3121, 3122, 3123, 3118
 25, 155, 156, 45, 43, 3125, 3126, 3127, 3122
 26, 156, 1922, 47, 45, 3129, 3130, 3131, 3126
 27, 29, 28, 48, 49, 3094, 3133, 3134, 3135
 28, 28, 31, 50, 48, 3099, 3137, 3138, 3133
 29, 31, 33, 51, 50, 3103, 3140, 3141, 3137
 30, 33, 35, 52, 51, 3107, 3143, 3144, 3140
 31, 35, 37, 53, 52, 3111, 3146, 3147, 3143
 32, 37, 39, 54, 53, 3115, 3149, 3150, 3146
 33, 39, 41, 55, 54, 3119, 3152, 3153, 3149
 34, 41, 43, 56, 55, 3123, 3155, 3156, 3152
 35, 43, 45, 57, 56, 3127, 3158, 3159, 3155
 36, 45, 47, 58, 57, 3131, 3161, 3162, 3158
** ... 2534 like lines cut
**
**
*nset, nset=nrbody
 1,  2,  3,  4,  5,  6,  7,  8,  9,  10,  11,  12,  13,  14,  15,  16
 17,  18,  19,  20,  21,  22,  23,  24,  25, 
*nset, nset=nbar
 26,  29,  49,  61,  73,  82,  85,  105,  116,  127,  138,  158,  161,  181,  193,  213
 216,  236,  248,  260,  301,  313,  325,  337,  348,  351,  371,  383,  2611,  2612,  2613,  2614
 2615,  2616,  2617,  2618,  2619,  2620,  2621,  2622,  2623,  2624,  2625,  2626,  2627,  2628,  2629,  2630
 2631,  2632,  2633,  2634,  2635,  2636,  2637,  2638,  2639,  2640,  2641,  2642,  2643,  2644,  2645,  2646
 2647,  2648,  2649,  2650,  2651,  2652,  2653,  2654,  2655,  2656,  2657,  2658,  2659,  2660,  2661,  2662
 2663,  2664,  2665,  2666,  2667,  2668,  2669,  2670,  2671,  2672,  2673,  2674,  2675,  2676,  2677,  2678
 2679,  2680,  2681,  2682,  2683,  2684,  2685,  2686,  2687,  2688,  2689,  2690,  2691,  2692,  2693,  2694
 2695,  2696,  2697,  2698,  2699,  2700,  2701,  2702,  2703,  2704,  2705,  2706,  2707,  2708,  2709,  2710
 2711,  2712,  2713,  2714,  2715,  2716,  2717,  2718,  2719,  2720,  2721,  2722,  2723,  2724,  2725,  2726
 2727,  2728,  2729,  2730,  2731,  2732,  2733,  2734,  2735,  2736,  2737,  2738,  2739,  2740,  2741,  2742
 2743,  2744,  2745,  2746,  2747,  2748,  2749,  2750,  2751,  2752,  2753,  2754,  2755,  2756,  2757,  2758
 2759,  2760,  2761,  2762,  2763,  2764,  2765,  2766,  2767,  2768,  2769,  2770,  2771,  2772,  2773,  2774
 2775,  2776,  2777,  2778,  2779,  2780,  2781,  2782,  2783,  2784,  2785,  2786,  2787,  2788,  2789,  2790
 2791,  2792,  2793,  2794,  2795,  2796,  2797,  2798,  2799,  2800,  2801,  2802,  2803,  2804,  2805,  2806
 2807,  2808,  2809,  2810,  2811,  2812,  2813,  2814,  2815,  2816,  2817,  2818,  2819,  2820,  2821,  2822
 2823,  2824,  2825,  2826,  2827,  2828,  2829,  2830,  2831,  2832,  2833,  2834,  2835,  2836,  2837,  2838
 2839,  2840,  2841,  2842,  2843,  2844,  2845,  2846,  2847,  2848,  2849,  2850,  2851,  2852,  2853,  2854
 2855,  2856,  2857,  2858,  2859,  2860,  2861,  2862,  2863,  2864,  2865,  2866,  2867,  2868,  2869,  2870
 2871,  2872,  2873,  2874,  2875,  2876,  2877,  2878,  2879,  2880,  2881,  2882,  2883,  2884,  2885,  2886
 2887,  2888,  2889,  2890,  2891,  2892,  2893,  2894,  2895,  2896,  2897,  2898,  2899,  2900,  2901,  2902
** ... 75 like lines cut
*nset, nset=nmbrackets
 403,  404,  405,  406,  407,  408,  409,  410,  411,  412,  413,  414,  415,  416,  417,  418
 419,  420,  421,  422,  423,  424,  425,  426,  427,  428,  429,  430,  431,  432,  433,  434
 435,  436,  437,  438,  439,  440,  441,  442,  443,  444,  445,  446,  447,  448,  449,  450
 451,  452,  453,  454,  455,  456,  457,  458,  459,  460,  461,  462,  463,  464,  465,  466
 467,  468,  469,  470,  471,  472,  473,  474,  475,  476,  477,  478,  479,  480,  481,  482
 483,  484,  485,  486,  487,  488,  489,  490,  491,  492,  493,  494,  495,  496,  497,  498
 499,  500,  501,  502,  503,  504,  505,  506,  507,  508,  509,  510,  511,  512,  513,  514
 515,  516,  517,  518,  519,  520,  521,  522,  523,  524,  525,  526,  527,  528,  529,  530
 531,  532,  533,  534,  535,  536,  537,  538,  539,  540,  541,  542,  543,  544,  545,  546
 547,  548,  549,  550,  551,  552,  553,  554,  555,  556,  557,  558,  559,  560,  561,  562
 563,  564,  565,  566,  567,  568,  569,  570,  571,  572,  573,  574,  575,  576,  577,  578
 579,  580,  581,  582,  583,  584,  585,  586,  587,  588,  589,  590,  591,  592,  593,  594
 595,  596,  597,  598,  599,  600,  601,  602,  603,  604,  605,  606,  607,  608,  609,  610
 611,  612,  613,  614,  615,  616,  617,  618,  619,  620,  621,  622,  623,  624,  625,  626
 627,  628,  629,  630,  631,  632,  633,  634,  635,  636,  637,  638,  639,  640,  641,  642
 643,  644,  645,  646,  647,  648,  649,  650,  651,  652,  653,  654,  655,  656,  657,  658
 659,  660,  661,  662,  663,  664,  665,  666,  667,  668,  669,  670,  671,  672,  673,  674
 675,  676,  677,  678,  679,  680,  681,  682,  683,  684,  685,  686,  687,  688,  689,  690
 691,  692,  693,  694,  695,  696,  697,  698,  699,  700,  701,  702,  703,  704,  705,  706
 707,  708,  709,  710,  711,  712,  713,  714,  715,  716,  717,  718,  719,  720,  721,  722
** ... 102 like lines cut
*nset, nset=ndblock
 102,  103,  125,  191,  233,  246,  258,  327,  381,  393,  1781,  1782,  1785,  1786,  1787,  1789
 1791,  1793,  1795,  1796,  1797,  1798,  1799,  1800,  1801,  1802,  1803,  1804,  1805,  1806,  1807,  1808
 1809,  1810,  1811,  1812,  1814,  1815,  1816,  1817,  1818,  1819,  1820,  1821,  1822,  1823,  1825,  1826
 1827,  1828,  1829,  1830,  1832,  1835,  1836,  1837,  1838,  1840,  1841,  1844,  1845,  1846,  1847,  1849
 1850,  1852,  1854,  1855,  1856,  1857,  1859,  1860,  1862,  1864,  1865,  1867,  1869,  1872,  1875,  1876
 1877,  1878,  1880,  1881,  1883,  1885,  1886,  1887,  1888,  1890,  1891,  1893,  1895,  1896,  1898,  1902
 1903,  1906,  1907,  1910,  1912,  1913,  1915,  1916,  1918,  1922,  1924,  1926,  1927,  1929,  1931,  1933
 1935,  1936,  1938,  1939,  1940,  1941,  1942,  1944,  1946,  1947,  1948,  1949,  1950,  1952,  1953,  1954
 1956,  1957,  1959,  1960,  1963,  1965,  1967,  1968,  1970,  1971,  1972,  1974,  1975,  1976,  1977,  1978
 1981,  1985,  1986,  1989,  1991,  1992,  1993,  1995,  1997,  1999,  2001,  2002,  2003,  2004,  2005,  2006
 2007,  2009,  2010,  2012,  2013,  2014,  2015,  2016,  2017,  2018,  2019,  2020,  2021,  2022,  2023,  2024
 2026,  2027,  2028,  2029,  2030,  2031,  2032,  2033,  2034,  2035,  2036,  2037,  2038,  2040,  2041,  2042
 2043,  2044,  2045,  2046,  2047,  2048,  2049,  2050,  2052,  2054,  2055,  2056,  2057,  2058,  2059,  2060
 2061,  2062,  2063,  2064,  2068,  2071,  2073,  2076,  2077,  2080,  2081,  2083,  2084,  2085,  2086,  2087
 2089,  2091,  2092,  2093,  2094,  2095,  2096,  2097,  2098,  2099,  2100,  2101,  2102,  2103,  2104,  2105
 2106,  2110,  2111,  2113,  2116,  2120,  2123,  2126,  2129,  2132,  2133,  2137,  2139,  2140,  2141,  2142
 2144,  2145,  2147,  2148,  2149,  2151,  2153,  2154,  2155,  2163,  2166,  2167,  2168,  2169,  2170,  2172
 2173,  2176,  2178,  2181,  2184,  2186,  2187,  2189,  2191,  2193,  2194,  2195,  2196,  2198,  2199,  2200
 2201,  2202,  2203,  2205,  2206,  2207,  2208,  2209,  2210,  2212,  2214,  2215,  2216,  2217,  2218,  2219
 2220,  2221,  2223,  2224,  2225,  2226,  2227,  2228,  2229,  2240,  2241,  2243,  2244,  2246,  2247,  2248
** ... 17 like lines cut
*nset, nset=nlegs
 27,  28,  30,  31,  33,  34,  35,  36,  37,  38,  39,  40,  41,  43,  45,  47
 48,  50,  51,  52,  53,  54,  55,  56,  57,  58,  60,  62,  63,  64,  65,  66
 67,  68,  69,  70,  72,  74,  75,  76,  77,  78,  79,  80,  81,  83,  84,  86
 87,  88,  89,  91,  93,  95,  97,  98,  99,  101,  104,  106,  107,  108,  109,  110
 111,  112,  113,  115,  117,  118,  119,  120,  121,  122,  123,  124,  126,  128,  129,  130
 131,  132,  133,  134,  135,  137,  139,  140,  141,  142,  143,  144,  145,  146,  150,  155
 156,  159,  160,  162,  163,  164,  165,  166,  167,  168,  169,  170,  171,  172,  173,  174
 175,  176,  177,  179,  180,  182,  183,  184,  185,  186,  187,  188,  189,  190,  192,  194
 195,  196,  197,  198,  199,  200,  201,  202,  207,  208,  209,  210,  212,  215,  218,  220
 222,  223,  224,  225,  226,  228,  229,  230,  231,  232,  234,  235,  237,  238,  239,  240
 241,  242,  243,  244,  245,  247,  249,  250,  251,  252,  253,  254,  255,  256,  257,  259
 261,  262,  263,  264,  265,  266,  267,  268,  271,  274,  275,  276,  278,  280,  281,  282
 283,  284,  285,  286,  287,  288,  289,  290,  292,  293,  294,  295,  296,  297,  298,  299
 300,  302,  304,  305,  306,  307,  308,  309,  310,  311,  312,  314,  316,  317,  318,  319
 320,  321,  322,  323,  324,  326,  328,  329,  330,  331,  332,  333,  334,  335,  336,  341
 346,  349,  350,  352,  353,  354,  355,  356,  357,  358,  359,  360,  361,  362,  363,  364
 365,  366,  367,  369,  370,  372,  373,  374,  375,  376,  377,  378,  379,  380,  382,  384
 385,  386,  387,  388,  389,  390,  391,  392,  394,  396,  397,  398,  399,  401,  402, 
*nset, nset=nfixedface
 403,  404,  405,  406,  407,  408,  409,  410,  411,  412,  413,  414,  415,  416,  417,  418
 419,  420,  421,  422,  423,  424,  425,  426,  427,  428,  429,  430,  431,  432,  433,  434
 435,  436,  437,  438,  439,  440,  441,  442,  443,  444,  445,  446,  447,  448,  449,  450
 451,  452,  453,  454,  455,  456,  457,  458,  459,  460,  461,  462,  463,  464,  465,  466
 467,  468,  469,  470,  471,  472,  473,  474,  475,  476,  477,  478,  479,  480,  481,  482
 483,  484,  485,  486,  487,  488,  491,  497,  714,  715,  716,  717,  718,  719,  1467,  1468
 1469,  1470,  1471,  1472,  1473,  1474,  1475,  1476,  1477,  1478,  1479,  1480,  1481,  1482,  1483,  1484
 1485,  1486,  1487,  1488,  1489,  1490,  1491,  1492,  1493,  1494,  1495,  1496,  1497,  1498,  1499,  1500
 1501,  1502,  1503,  1504,  1505,  1506,  1507,  1508,  1509,  1510,  1511,  1512,  1513,  1514,  1515,  1516
 1517,  1518,  1519,  1520,  1521,  1522,  1523,  1524,  1525,  1526,  1527,  1528,  1529,  1530,  1531,  1532
 1533,  1534,  1535,  1536,  1537,  1538,  1539,  1540,  1541,  1542,  1543,  1544,  1545,  1546,  1547,  1548
 1549,  1550,  1551,  1552,  1591,  1596,  1764,  1765,  1766,  1767,  1768,  1769,  4011,  4012,  4013,  4014
 4016,  4017,  4018,  4020,  4021,  4022,  4024,  4025,  4026,  4028,  4029,  4031,  4032,  4034,  4035,  4036
 4038,  4039,  4041,  4042,  4044,  4045,  4046,  4047,  4049,  4050,  4051,  4053,  4054,  4055,  4057,  4058
 4059,  4061,  4062,  4064,  4065,  4067,  4068,  4069,  4071,  4072,  4074,  4075,  4077,  4078,  4079,  4080
 4082,  4083,  4084,  4086,  4087,  4088,  4090,  4091,  4092,  4094,  4095,  4097,  4098,  4100,  4101,  4102
 4104,  4105,  4107,  4108,  4110,  4111,  4113,  4114,  4116,  4118,  4119,  4121,  4122,  4124,  4126,  4127
 4129,  4130,  4132,  4134,  4135,  4136,  4137,  4139,  4140,  4141,  4143,  4144,  4145,  4147,  4148,  4149
 4151,  4152,  4154,  4155,  4157,  4158,  4160,  4161,  4162,  4164,  4165,  4167,  4168,  4170,  4171,  4173
 4174,  4175,  4177,  4178,  4180,  4181,  4183,  4184,  4185,  4187,  4188,  4190,  4191,  4193,  4194,  4196
** ... 13 like lines cut
*nset, nset=nbolted
 494,  495,  499,  502,  506,  510,  514,  523,  526,  532,  536,  547,  548,  549,  555,  556
 560,  564,  565,  567,  591,  592,  724,  729,  1559,  1560,  1564,  1568,  1573,  1574,  1577,  1580
 1599,  1602,  1607,  1611,  1617,  1621,  1623,  1627,  1632,  1646,  1647,  1650,  1657,  1659,  1770,  1772
 4237,  4247,  4257,  4267,  4277,  4287,  4315,  4327,  4337,  4367,  4371,  4373,  4385,  4395,  4405,  4408
 4412,  4416,  4498,  4501,  4503,  4895,  4908,  4920,  6885,  6895,  6905,  6917,  6926,  6935,  6992,  7004
 7014,  7029,  7039,  7047,  7051,  7061,  7074,  7116,  7121,  7125,  7146,  7150,  7154,  7534,  7538,  7542
*nset, nset=nnlendcaps
 2619,  2624,  2629,  2634,  2639,  2643,  2648,  2653,  2658,  2664,  2669,  2674,  9382,  9397,  9412,  9427
 9440,  9453,  9466,  9479,  9494,  9507,  9520,  9532
 *nset, nset=nrendcaps
 2989,  2990,  2991,  2992,  2993,  3003,  3013,  3023,  3033,  3043,  3053,  3090,  3091,  3092,  10502,  10505
 10508,  10511,  10541,  10571,  10601,  10631,  10661,  10691,  10818,  10821,  10824,  10826
*nset, nset=nssurface
 213,  216,  236,  248,  301,  2897,  2898,  2899,  2900,  2901,  2902,  2903,  2904,  2905,  2906,  2907
 2908,  2909,  2910,  2911,  2912,  2913,  2914,  2915,  2916,  2917,  2918,  2919,  2936,  2937,  2941,  2942
 2947,  2948,  2953,  2954,  2959,  2960,  2965,  2966,  2971,  2972,  2977,  2978,  2983,  2984,  2989,  2990
 2993,  2994,  2995,  2996,  2997,  2998,  2999,  3000,  3001,  3002,  3003,  3004,  3005,  3006,  3007,  3008
 3009,  3010,  3011,  3012,  3013,  3014,  3015,  3016,  3017,  3018,  3019,  3020,  3021,  3022,  3023,  3024
 3025,  3026,  3027,  3028,  3029,  3030,  3031,  3032,  3033,  3034,  3035,  3036,  3037,  3038,  3039,  3040
 3041,  3042,  3549,  3589,  3623,  3747,  10228,  10231,  10234,  10236,  10238,  10240,  10244,  10246,  10247,  10249
 10250,  10252,  10253,  10256,  10258,  10259,  10261,  10262,  10264,  10265,  10268,  10270,  10271,  10273,  10274,  10276
 10277,  10280,  10282,  10283,  10285,  10286,  10288,  10289,  10292,  10294,  10295,  10297,  10298,  10300,  10301,  10359
 10360,  10361,  10372,  10373,  10374,  10388,  10389,  10390,  10404,  10405,  10406,  10420,  10421,  10422,  10436,  10437
 10438,  10452,  10453,  10454,  10468,  10469,  10470,  10484,  10485,  10486,  10500,  10501,  10502,  10512,  10513,  10515
 10516,  10518,  10519,  10521,  10522,  10524,  10525,  10527,  10528,  10530,  10531,  10533,  10534,  10536,  10537,  10539
 10540,  10542,  10543,  10545,  10546,  10548,  10549,  10551,  10552,  10554,  10555,  10557,  10558,  10560,  10561,  10563
 10564,  10566,  10567,  10569,  10570,  10572,  10573,  10575,  10576,  10578,  10579,  10581,  10582,  10584,  10585,  10587
 10588,  10590,  10591,  10593,  10594,  10596,  10597,  10599,  10600,  10602,  10603,  10605,  10606,  10608,  10609,  10611
 10612,  10614,  10615,  10617,  10618,  10620,  10621,  10623,  10624,  10626,  10627,  10629,  10630,  10632,  10633,  10635
 10636,  10638,  10639,  10641,  10642,  10644,  10645,  10647,  10648,  10650,  10651,  10653,  10654,  10656,  10657,  10659
 10660, 
*nset, nset=ndfrontplate
 538,  593,  596,  598,  601,  604,  609,  615,  620,  625,  630,  635,  640,  653,  654,  655
 656,  657,  683,  690,  697,  705,  745,  746,  748,  750,  751,  752,  754,  756,  758,  759
 760,  761,  762,  763,  764,  765,  766,  768,  769,  770,  771,  772,  773,  774,  776,  777
 778,  779,  780,  781,  782,  783,  784,  785,  786,  787,  788,  790,  791,  796,  797,  798
 799,  801,  802,  804,  805,  806,  807,  808,  811,  812,  814,  817,  818,  820,  823,  826
 829,  831,  832,  834,  835,  836,  837,  838,  840,  841,  844,  848,  849,  850,  851,  852
 853,  854,  856,  858,  859,  861,  862,  863,  864,  865,  867,  868,  869,  870,  871,  872
 873,  874,  875,  876,  877,  878,  879,  880,  881,  882,  883,  884,  885,  886,  887,  888
 889,  891,  892,  893,  894,  895,  896,  897,  898,  900,  901,  902,  903,  904,  905,  906
 907,  909,  910,  911,  912,  913,  914,  915,  916,  917,  918,  919,  920,  921,  922,  923
 925,  927,  928,  929,  930,  931,  932,  933,  934,  937,  945,  949,  950,  952,  953,  955
 956,  957,  959,  960,  961,  963,  964,  965,  966,  967,  968,  969,  971,  972,  973,  975
 977,  978,  980,  981,  982,  983,  984,  985,  986,  987,  988,  989,  990,  991,  993,  994
 995,  996,  997,  998,  1002,  1004,  1005,  1006,  1007,  1008,  1009,  1010,  1012,  1013,  1014,  1015
 1016,  1017,  1018,  1019,  1020,  1021,  1022,  1023,  1025,  1026,  1027,  1028,  1029,  1030,  1035,  1036
 1037,  1041,  1044,  1046,  1048,  1049,  1050,  1052,  1053,  1054,  1055,  1056,  1057,  1058,  1059,  1060
 1062,  1063,  1064,  1065,  1067,  1069,  1070,  1071,  1072,  1073,  1074,  1076,  1077,  1078,  1080,  1081
 1082,  1083,  1084,  1086,  1087,  1088,  1089,  1090,  1091,  1092,  1093,  1095,  1096,  1097,  1098,  1099
 1101,  1102,  1103,  1104,  1105,  1106,  1107,  1108,  1109,  1110,  1111,  1112,  1113,  1114,  1115,  1116
 1117,  1119,  1120,  1121,  1122,  1123,  1124,  1125,  1126,  1128,  1129,  1130,  1131,  1132,  1133,  1134
** ... 92 like lines cut
*elset, elset=erbody
 1,  2,  3,  4,  5,  6,  7,  8,  9,  10,  11,  12,  13,  14,  15,  16
*elset, elset=ebar
 2075,  2076,  2077,  2078,  2079,  2080,  2081,  2082,  2083,  2084,  2085,  2086,  2087,  2088,  2089,  2090
 2091,  2092,  2093,  2094,  2095,  2096,  2097,  2098,  2099,  2100,  2101,  2102,  2103,  2104,  2105,  2106
 2107,  2108,  2109,  2110,  2111,  2112,  2113,  2114,  2115,  2116,  2117,  2118,  2119,  2120,  2121,  2122
 2123,  2124,  2125,  2126,  2127,  2128,  2129,  2130,  2131,  2132,  2133,  2134,  2135,  2136,  2137,  2138
 2139,  2140,  2141,  2142,  2143,  2144,  2145,  2146,  2147,  2148,  2149,  2150,  2151,  2152,  2153,  2154
 2155,  2156,  2157,  2158,  2159,  2160,  2161,  2162,  2163,  2164,  2165,  2166,  2167,  2168,  2169,  2170
 2171,  2172,  2173,  2174,  2175,  2176,  2177,  2178,  2179,  2180,  2181,  2182,  2183,  2184,  2185,  2186
 2187,  2188,  2189,  2190,  2191,  2192,  2193,  2194,  2195,  2196,  2197,  2198,  2199,  2200,  2201,  2202
 2203,  2204,  2205,  2206,  2207,  2208,  2209,  2210,  2211,  2212,  2213,  2214,  2215,  2216,  2217,  2218
 2219,  2220,  2221,  2222,  2223,  2224,  2225,  2226,  2227,  2228,  2229,  2230,  2231,  2232,  2233,  2234
 2235,  2236,  2237,  2238,  2239,  2240,  2241,  2242,  2243,  2244,  2245,  2246,  2247,  2248,  2249,  2250
 2251,  2252,  2253,  2254,  2255,  2256,  2257,  2258,  2259,  2260,  2261,  2262,  2263,  2264,  2265,  2266
 2267,  2268,  2269,  2270,  2271,  2272,  2273,  2274,  2275,  2276,  2277,  2278,  2279,  2280,  2281,  2282
 2283,  2284,  2285,  2286,  2287,  2288,  2289,  2290,  2291,  2292,  2293,  2294,  2295,  2296,  2297,  2298
 2299,  2300,  2301,  2302,  2303,  2304,  2305,  2306,  2307,  2308,  2309,  2310,  2311,  2312,  2313,  2314
 2315,  2316,  2317,  2318,  2319,  2320,  2321,  2322,  2323,  2324,  2325,  2326,  2327,  2328,  2329,  2330
 2331,  2332,  2333,  2334,  2335,  2336,  2337,  2338,  2339,  2340,  2341,  2342,  2343,  2344,  2345,  2346
 2347,  2348,  2349,  2350,  2351,  2352,  2353,  2354,  2355,  2356,  2357,  2358,  2359,  2360,  2361,  2362
 2363,  2364,  2365,  2366,  2367,  2368,  2369,  2370,  2371,  2372,  2373,  2374,  2375,  2376,  2377,  2378
 2379,  2380,  2381,  2382,  2383,  2384,  2385,  2386,  2387,  2388,  2389,  2390,  2391,  2392,  2393,  2394
** ... 11 like lines cut
*elset, elset=embrackets
 309,  310,  311,  312,  313,  314,  315,  316,  317,  318,  319,  320,  321,  322,  323,  324
 325,  326,  327,  328,  329,  330,  331,  332,  333,  334,  335,  336,  337,  338,  339,  340
 341,  342,  343,  344,  345,  346,  347,  348,  349,  350,  351,  352,  353,  354,  355,  356
 357,  358,  359,  360,  361,  362,  363,  364,  365,  366,  367,  368,  369,  370,  371,  372
 373,  374,  375,  376,  377,  378,  379,  380,  381,  382,  383,  384,  385,  386,  387,  388
 389,  390,  391,  392,  393,  394,  395,  396,  397,  398,  399,  400,  401,  402,  403,  404
 405,  406,  407,  408,  409,  410,  411,  412,  413,  414,  415,  416,  417,  418,  419,  420
 421,  422,  423,  424,  425,  426,  427,  428,  429,  430,  431,  432,  433,  434,  435,  436
 437,  438,  439,  440,  441,  442,  443,  444,  445,  446,  447,  448,  449,  450,  451,  452
 453,  454,  455,  456,  457,  458,  459,  460,  461,  462,  463,  464,  465,  466,  467,  468
 469,  470,  471,  472,  473,  474,  475,  476,  477,  478,  479,  480,  481,  482,  483,  484
 485,  486,  487,  488,  489,  490,  491,  492,  493,  494,  495,  496,  497,  498,  499,  500
 501,  502,  503,  504,  505,  506,  507,  508,  509,  510,  511,  512,  513,  514,  515,  516
 517,  518,  519,  520,  521,  522,  523,  524,  525,  526,  527,  528,  529,  530,  531,  532
 533,  534,  535,  536,  537,  538,  539,  540,  541,  542,  543,  544,  545,  546,  547,  548
 549,  550,  551,  552,  553,  554,  555,  556,  557,  558,  559,  560,  561,  562,  563,  564
 565,  566,  567,  568,  569,  570,  571,  572,  573,  574,  575,  576,  577,  578,  579,  580
 581,  582,  583,  584,  585,  586,  587,  588,  589,  590,  591,  592,  593,  594,  595,  596
 597,  598,  599,  600,  601,  602,  603,  604,  605,  606,  1167,  1168,  1169,  1170,  1171,  1172
 1173,  1174,  1175,  1176,  1177,  1178,  1179,  1180,  1181,  1182,  1183,  1184,  1185,  1186,  1187,  1188
** ... 18 like lines cut
*elset, elset=edblock
 1465,  1466,  1467,  1468,  1469,  1470,  1471,  1472,  1473,  1474,  1475,  1476,  1477,  1478,  1479,  1480
 1481,  1482,  1483,  1484,  1485,  1486,  1487,  1488,  1489,  1490,  1491,  1492,  1493,  1494,  1495,  1496
 1497,  1498,  1499,  1500,  1501,  1502,  1503,  1504,  1505,  1506,  1507,  1508,  1509,  1510,  1511,  1512
 1513,  1514,  1515,  1516,  1517,  1518,  1519,  1520,  1521,  1522,  1523,  1524,  1525,  1526,  1527,  1528
 1529,  1530,  1531,  1532,  1533,  1534,  1535,  1536,  1537,  1538,  1539,  1540,  1541,  1542,  1543,  1544
 1545,  1546,  1547,  1548,  1549,  1550,  1551,  1552,  1553,  1554,  1555,  1556,  1557,  1558,  1559,  1560
 1561,  1562,  1563,  1564,  1565,  1566,  1567,  1568,  1569,  1570,  1571,  1572,  1573,  1574,  1575,  1576
 1577,  1578,  1579,  1580,  1581,  1582,  1583,  1584,  1585,  1586,  1587,  1588,  1589,  1590,  1591,  1592
 1593,  1594,  1595,  1596,  1597,  1598,  1599,  1600,  1601,  1602,  1603,  1604,  1605,  1606,  1607,  1608
 1609,  1610,  1611,  1612,  1613,  1614,  1615,  1616,  1617,  1618,  1619,  1620,  1621,  1622,  1623,  1624
 1625,  1626,  1627,  1628,  1629,  1630,  1631,  1632,  1633,  1634,  1635,  1636,  1637,  1638,  1639,  1640
 1641,  1642,  1643,  1644,  1645,  1646,  1647,  1648,  1649,  1650,  1651,  1652,  1653,  1654,  1655,  1656
 1657,  1658,  1659,  1660,  1661,  1662,  1663,  1664,  1665,  1666,  1667,  1668,  1669,  1670,  1671,  1672
 1673,  1674,  1675,  1676,  1677,  1678,  1679,  1680,  1681,  1682,  1683,  1684,  1685,  1686,  1687,  1688
 1689,  1690,  1691,  1692,  1693,  1694,  1695,  1696,  1697,  1698,  1699,  1700,  1701,  1702,  1703,  1704
 1705,  1706,  1707,  1708,  1709,  1710,  1711,  1712,  1713,  1714,  1715,  1716,  1717,  1718,  1719,  1720
 1721,  1722,  1723,  1724,  1725,  1726,  1727,  1728,  1729,  1730,  1731,  1732,  1733,  1734,  1735,  1736
 1737,  1738,  1739,  1740,  1741,  1742,  1743,  1744,  1745,  1746,  1747,  1748,  1749,  1750,  1751,  1752
 1753,  1754,  1755,  1756,  1757,  1758,  1759,  1760,  1761,  1762,  1763,  1764,  1765,  1766,  1767,  1768
 1769,  1770,  1771,  1772,  1773,  1774,  1775,  1776,  1777,  1778,  1779,  1780,  1781,  1782,  1783,  1784
** ... 19 like lines cut
*elset, elset=elegs
 17,  18,  19,  20,  21,  22,  23,  24,  25,  26,  27,  28,  29,  30,  31,  32
 33,  34,  35,  36,  37,  38,  39,  40,  41,  42,  43,  44,  45,  46,  47,  48
 49,  50,  51,  52,  53,  54,  55,  56,  57,  58,  59,  60,  61,  62,  63,  64
 65,  66,  67,  68,  69,  70,  71,  72,  73,  74,  75,  76,  77,  78,  79,  80
 81,  82,  83,  84,  85,  86,  87,  88,  89,  90,  91,  92,  93,  94,  95,  96
 97,  98,  99,  100,  101,  102,  103,  104,  105,  106,  107,  108,  109,  110,  111,  112
 113,  114,  115,  116,  117,  118,  119,  120,  121,  122,  123,  124,  125,  126,  127,  128
 129,  130,  131,  132,  133,  134,  135,  136,  137,  138,  139,  140,  141,  142,  143,  144
 145,  146,  147,  148,  149,  150,  151,  152,  153,  154,  155,  156,  157,  158,  159,  160
 161,  162,  163,  164,  165,  166,  167,  168,  169,  170,  171,  172,  173,  174,  175,  176
 177,  178,  179,  180,  181,  182,  183,  184,  185,  186,  187,  188,  189,  190,  191,  192
 193,  194,  195,  196,  197,  198,  199,  200,  201,  202,  203,  204,  205,  206,  207,  208
 209,  210,  211,  212,  213,  214,  215,  216,  217,  218,  219,  220,  221,  222,  223,  224
 225,  226,  227,  228,  229,  230,  231,  232,  233,  234,  235,  236,  237,  238,  239,  240
 241,  242,  243,  244,  245,  246,  247,  248,  249,  250,  251,  252,  253,  254,  255,  256
 257,  258,  259,  260,  261,  262,  263,  264,  265,  266,  267,  268,  269,  270,  271,  272
 273,  274,  275,  276,  277,  278,  279,  280,  281,  282,  283,  284,  285,  286,  287,  288
 289,  290,  291,  292,  293,  294,  295,  296,  297,  298,  299,  300,  301,  302,  303,  304
 305,  306,  307,  308, 
*elset, elset=essurface
 **2372,  2373,  2374,  
 2376,  2377,  2378,  2380,  2381,  2382,  2384,  2385,  2386,  2388,  2389,  2390,  2392
 2393,  2394,  2415,  2419,  2424,  2429,  2434,  2439,  2444,  2449,  2454,  2459,  2463,  2464,  2465,  2466
 2467,  2468,  2469,  2470,  2471,  2472,  2473,  2474,  2475,  2476,  2477,  2478,  2479,  2480,  2481,  2482
 2483,  2484,  2485,  2486,  2487,  2488,  2489,  2490,  2491,  2492,  2493,  2494,  2495,  2496,  2497,  2498
 2499,  2500,  2501,  2502,  2503,  2504,  2505,  2506,  2507,  2508,  2509,  2510,  2511,  2512, 
*elset, elset=edfrontplate
 607,  608,  609,  610,  611,  612,  613,  614,  615,  616,  617,  618,  619,  620,  621,  622
 623,  624,  625,  626,  627,  628,  629,  630,  631,  632,  633,  634,  635,  636,  637,  638
 639,  640,  641,  642,  643,  644,  645,  646,  647,  648,  649,  650,  651,  652,  653,  654
 655,  656,  657,  658,  659,  660,  661,  662,  663,  664,  665,  666,  667,  668,  669,  670
 671,  672,  673,  674,  675,  676,  677,  678,  679,  680,  681,  682,  683,  684,  685,  686
 687,  688,  689,  690,  691,  692,  693,  694,  695,  696,  697,  698,  699,  700,  701,  702
 703,  704,  705,  706,  707,  708,  709,  710,  711,  712,  713,  714,  715,  716,  717,  718
 719,  720,  721,  722,  723,  724,  725,  726,  727,  728,  729,  730,  731,  732,  733,  734
 735,  736,  737,  738,  739,  740,  741,  742,  743,  744,  745,  746,  747,  748,  749,  750
 751,  752,  753,  754,  755,  756,  757,  758,  759,  760,  761,  762,  763,  764,  765,  766
 767,  768,  769,  770,  771,  772,  773,  774,  775,  776,  777,  778,  779,  780,  781,  782
 783,  784,  785,  786,  787,  788,  789,  790,  791,  792,  793,  794,  795,  796,  797,  798
 799,  800,  801,  802,  803,  804,  805,  806,  807,  808,  809,  810,  811,  812,  813,  814
 815,  816,  817,  818,  819,  820,  821,  822,  823,  824,  825,  826,  827,  828,  829,  830
 831,  832,  833,  834,  835,  836,  837,  838,  839,  840,  841,  842,  843,  844,  845,  846
 847,  848,  849,  850,  851,  852,  853,  854,  855,  856,  857,  858,  859,  860,  861,  862
 863,  864,  865,  866,  867,  868,  869,  870,  871,  872,  873,  874,  875,  876,  877,  878
 879,  880,  881,  882,  883,  884,  885,  886,  887,  888,  889,  890,  891,  892,  893,  894
 895,  896,  897,  898,  899,  900,  901,  902,  903,  904,  905,  906,  907,  908,  909,  910
 911,  912,  913,  914,  915,  916,  917,  918,  919,  920,  921,  922,  923,  924,  925,  926
** ... 15 like lines cut
** Names based on rcontact
*NSET,NSET=Nrcontact 
2906, 2907, 3003, 3004, 3005, 3006, 3007, 
3008, 3009, 3010, 3011, 10261, 10264, 10542, 
10545, 10548, 10551, 10554, 10557, 10560, 
10563, 10566
**
** Material Definitios
**
*Shell Section, Elset=ebar, material=Domax, offset=0.5
0.225
*Shell Section, Elset=elegs, material=Domax, offset=0.5
0.15625
*shell section, elset=edblock, material=domax, offset=0.5
0.15625
*shell section, elset=edfrontplate, material=domax, offset=0.5
0.25
*shell section, elset=embrackets, material=steel, offset=0.5
0.375
*shell section, elset=erbody, material=steel, offset=0.5
1.0
**
**
*Node, nset=rbody
 15000, 1.331247337500e+01, -23, 13.
 15001, 1.331247337500e+01, -23, 12.0
 15500, 17.75, -23., 9.5
 15501, 18, -23, 9.5
 **
*Rigid body, nset=nrendcaps, ref node=15500, rot node=15501
*Rigid body, nset=nrbody, ref node=15000, rot node=15001
***Rigid body, nset=Nrcontact, ref node=15000, rot node=15001
**
**
**
*material, name=domax
*density
0.2836
*elastic
29e6,0.29
*plastic, hardening=isotropic
109000, 0.
109233.63213266, 0.0171056877184482
109544.030646642, 0.0184775402439636
109882.57880484, 0.0198629798424855
110470.994889866, 0.0223624281148196
110625.154026355, 0.0233215357052394
110809.994504623, 0.024945762502965
111190.218299606, 0.0275374375877354
111385.389166176, 0.0288550345398024
111597.53834017, 0.0301649069121425
111959.0576703, 0.0326458819534121
113450.971109613, 0.0338112561313804
113937.614723078, 0.0350730696502257
114717.935253694, 0.0375387802079529
115137.949190423, 0.0387332011382543
115506.975092345, 0.0400141013834422
116246.115703182, 0.0425653985409632
116611.795515319, 0.0438359636961258
116962.23202955, 0.0451215054573506
117545.823725866, 0.0473975554056741
** ... 22 like lines cut
*material, name=steel
*density
0.2836
*elastic
29e6, 0.29
**
** Surface definitions
**
*Surface, name=Sslave, type=element
essurface, spos
*surface, name=Smaster, type=element
erbody, spos
*contact pair, interaction=sticky, type=surface to surface
Sslave, Smaster
****
*surface interaction, name=sticky
*surface behavior, pressure-overclosure=linear
150e6, 1
***Friction
**0.01, 1E3
****
*transform, nset=nfixedface, type=r
-1, 0, 0, 0, 1, 1
**
**
*Boundary
nfixedface,1, 3
nbolted, 3, 3
15001, 1, 3
15501, 1, 3
15000, 1, 2
*initial conditions, type=displacement
15000, 3, .0625
**
**
*STEP, nlgeom
*STATIC
0.05,1.
*cload
**15000, 3, -12500.
15000, 3, -22500.
**
*dload
ebar, grav, 1.0, 0, -1, 0
embrackets, grav, 1.0, 0, -1, 0
edblock, grav, 1.0, 0, -1, 0
elegs, grav, 1.0, 0, -1, 0
edfrontplate, grav, 1.0, 0, -1, 0
**
*NODE PRINT,NSET=Nrcontact,FREQUENCY=10, totals=yes, global=yes
U, RF
*node print, nset=nfixedface, totals=only, global=yes
U, RF
*node print, nset=nbolted, totals=only, global=yes
U, RF
*el print, elset=essurface, frequency=10
S,E
*contact print, frequency=10
cdis, cstr
**
*contact file, frequency=10
cdis, cstr
*node file, frequency=10, global=yes
U, RF
*el file, frequency=10
S, E
*END STEP
