*NODE, NSET=Nall
**$MeshFormat
**2.2 0 8
**$EndMeshFormat
**$Nodes
**6488
1,-3.05350e+03,0.00000e+00,1.28514e-05
2,-2.83674e+03,0.00000e+00,8.35913e+02
3,-2.55000e+03,0.00000e+00,1.00452e+03
4,-2.20000e+03,0.00000e+00,1.00452e+03
5,-2.20000e+03,-5.83333e+02,-8.17790e+02
6,-2.20000e+03,-2.91667e+02,-9.61244e+02
7,-2.20000e+03,2.91667e+02,-9.61244e+02
8,-2.20000e+03,5.83333e+02,-8.17790e+02
9,-2.00000e+03,0.00000e+00,1.00452e+03
10,-2.00000e+03,-8.75000e+02,-4.93390e+02
11,-2.00000e+03,-5.83333e+02,-8.17790e+02
12,-2.00000e+03,-2.91667e+02,-9.61244e+02
13,-2.00000e+03,2.91667e+02,-9.61244e+02
14,-2.00000e+03,5.83333e+02,-8.17790e+02
15,-2.00000e+03,8.75000e+02,-4.93390e+02
16,-1.80000e+03,0.00000e+00,1.00452e+03
17,-1.80000e+03,-5.83333e+02,-8.17790e+02
18,-1.80000e+03,5.83333e+02,-8.17790e+02
19,0.00000e+00,0.00000e+00,1.00452e+03
20,-1.80000e+03,2.91667e+02,-9.61244e+02
** ... 6468 like lines cut
**$EndNodes
**$Elements
**3921
**1 15 2 0 1 1
**2 15 2 0 2 2
**3 15 2 0 3 3
**4 15 2 0 4 4
**5 15 2 0 5 5
**6 15 2 0 6 6
**7 15 2 0 7 7
**8 15 2 0 8 8
**9 15 2 0 9 9
**10 15 2 0 10 10
**11 15 2 0 11 11
**12 15 2 0 12 12
**13 15 2 0 13 13
**14 15 2 0 14 14
**15 15 2 0 15 15
**16 15 2 0 16 16
**17 15 2 0 17 17
**18 15 2 0 18 18
**19 15 2 0 19 19
** ... 674 like lines cut
*ELEMENT, TYPE=S6, ELSET=Eall
1, 2, 96, 127, 123, 1259, 132
2, 2, 127, 71, 132, 1260, 97
3, 80, 1197, 81, 1261, 1262, 107
4, 1208, 81, 1197, 1263, 1262, 1264
5, 82, 81, 1208, 108, 1263, 1265
6, 1195, 88, 1199, 1266, 1267, 1268
7, 1195, 89, 88, 1269, 115, 1266
8, 88, 87, 1199, 114, 1270, 1267
9, 71, 1196, 72, 1271, 1272, 98
10, 1200, 1206, 1196, 1273, 1274, 1275
11, 86, 85, 1211, 112, 1276, 1277
12, 87, 1214, 1199, 1278, 1279, 1270
13, 86, 1214, 87, 1280, 1278, 113
14, 86, 1211, 1214, 1277, 1281, 1280
15, 1215, 74, 73, 1282, 100, 1283
16, 1216, 126, 127, 1284, 131, 1285
17, 96, 1216, 127, 1286, 1285, 1259
18, 93, 1202, 1205, 1287, 1288, 1289
19, 1205, 94, 93, 1290, 120, 1289
20, 1206, 72, 1196, 1291, 1272, 1274
** ... 3208 like lines cut
**$EndElements
*NSET, NSET=n_head2
27,28,29,556,557,558,559,560,561,562,563,564,565,566,
567,568,569,570,571,572,573,574,575,576,577,578,579,580,581,
582,583,584,585,586,587,588,589,590,591,592,593,594,595,596,
597,598,599,600,601,602,603,604,605,606,607,608,609,610,611,
612,613,614,615,616,617,618,619,620,621,622,623,624,625,626,
627,628,629,630,631,632,633,634,635,636,637,638,639,640,641,
642,643,644,645,646,647,648,649,650,651,652,653,654,655,656,
657,658,659,660,661,662,663,664,665,666,667,668,669,670,671,
672,673,674,675,676,677,678,679,680,681,682,683,684,685,4581,
4582,4583,4584,4585,4586,4587,4588,4589,4590,4591,4592,4593,4594,4595,4596,
4597,4598,4599,4600,4601,4602,4603,4604,4605,4606,4607,4608,4609,4610,4611,
4612,4613,4614,4615,4616,4617,4618,4619,4620,4621,4622,4623,4624,4625,4626,
4627,4628,4629,4630,4631,4632,4633,4634,4635,4636,4637,4638,4639,4640,4641,
4642,4643,4644,4645,4646,4647,4648,4649,4650,4651,4652,4653,4654,4655,4656,
4657,4658,4659,4660,4661,4662,4663,4664,4665,4666,4667,4668,4669,4670,4671,
4672,4673,4674,4675,4676,4677,4678,4679,4680,4681,4682,4683,4684,4685,4686,
4687,4688,4689,4690,4691,4692,4693,4694,4695,4696,4697,4698,4699,4700,4701,
4702,4703,4704,4705,4706,4707,4708,4709,4710,4711,4712,4713,4714,4715,4716,
4717,4718,4719,4720,4721,4722,4723,4724,4725,4726,4727,4728,4729,4730,4731,
4732,4733,4734,4735,4736,4737,4738,4739,4740,4741,4742,4743,4744,4745,4746,
** ... 30 like lines cut
*ELSET, ELSET=head2
1932,1933,1934,1935,1936,1937,1938,1939,1940,1941,1942,1943,1944,1945,
1946,1947,1948,1949,1950,1951,1952,1953,1954,1955,1956,1957,1958,1959,1960,
1961,1962,1963,1964,1965,1966,1967,1968,1969,1970,1971,1972,1973,1974,1975,
1976,1977,1978,1979,1980,1981,1982,1983,1984,1985,1986,1987,1988,1989,1990,
1991,1992,1993,1994,1995,1996,1997,1998,1999,2000,2001,2002,2003,2004,2005,
2006,2007,2008,2009,2010,2011,2012,2013,2014,2015,2016,2017,2018,2019,2020,
2021,2022,2023,2024,2025,2026,2027,2028,2029,2030,2031,2032,2033,2034,2035,
2036,2037,2038,2039,2040,2041,2042,2043,2044,2045,2046,2047,2048,2049,2050,
2051,2052,2053,2054,2055,2056,2057,2058,2059,2060,2061,2062,2063,2064,2065,
2066,2067,2068,2069,2070,2071,2072,2073,2074,2075,2076,2077,2078,2079,2080,
2081,2082,2083,2084,2085,2086,2087,2088,2089,2090,2091,2092,2093,2094,2095,
2096,2097,2098,2099,2100,2101,2102,2103,2104,2105,2106,2107,2108,2109,2110,
2111,2112,2113,2114,2115,2116,2117,2118,2119,2120,2121,2122,2123,2124,2125,
2126,2127,2128,2129,2130,2131,2132,2133,2134,2135,2136,2137,2138,2139,2140,
2141,2142,2143,2144,2145,2146,2147,2148,2149,2150,2151,2152,2153,2154,2155,
2156,2157,2158,2159,2160,2161,2162,2163,2164,2165,2166,2167,2168,2169,2170,
2171,2172,2173,2174,2175,2176,2177,2178,2179,2180,2181,2182,2183,2184,2185,
2186,2187,2188,2189,2190,2191,2192,2193,2194,2195,2196,2197,2198,2199,2200,
2201,2202,2203,2204,2205,2206,2207,2208,2209,2210,2211,2216,2221,2225,2226,
2230,2234,2235,2236,2245,2253,2254,2255,2256,2257,2258,2259,2260,2261,2262,
2263,2264,2265,2269,2272,2273,2274,2275,2276,2277,2278,2279,2280,2281,2282,
2283,2284,2286,2287,2292,2293,2298,2299,2300,2303,2304,2307,2308,2309,2310,
2311,2314,2317,2318,2322,2323,2325,2326,2328,2331,2332,2335,2336,2338,2340
*NSET, NSET=n_shell
3,4,5,6,7,8,9,10,11,12,13,14,15,16,
17,18,19,20,21,22,23,24,25,26,29,30,31,32,33,
34,35,36,37,38,39,40,41,133,134,135,136,137,138,139,
140,141,142,143,144,145,146,147,148,149,150,151,152,153,154,
155,156,157,158,159,160,161,162,163,164,165,166,167,168,169,
170,171,172,173,174,175,176,177,178,179,180,181,182,183,184,
185,186,187,188,189,190,191,192,193,194,195,199,200,201,202,
203,204,205,206,207,208,209,210,211,212,213,214,215,216,217,
218,219,220,221,222,223,224,225,226,227,228,229,230,231,232,
233,234,235,236,237,238,239,240,241,242,243,244,245,246,247,
248,249,250,251,252,253,254,255,256,257,258,259,260,261,262,
263,264,265,266,267,268,269,270,271,272,273,274,275,276,277,
278,279,280,281,282,283,284,285,286,287,288,289,290,291,292,
293,294,295,296,297,298,299,300,301,302,303,304,305,306,307,
308,309,310,311,312,313,314,315,316,317,318,319,320,321,322,
323,324,325,326,327,328,329,330,331,332,333,334,335,336,337,
338,339,340,341,342,343,344,345,346,347,348,349,350,351,352,
353,354,355,356,357,358,359,360,361,362,363,364,365,366,367,
368,369,370,371,372,373,374,375,376,377,378,379,380,381,382,
383,384,385,386,387,388,389,390,391,392,393,394,395,396,397,
** ... 259 like lines cut
*ELSET, ELSET=shell
291,292,293,294,295,296,297,298,299,300,301,302,303,304,
305,306,307,308,309,310,311,312,313,314,315,316,317,318,319,
320,321,322,323,324,325,326,327,328,329,330,331,332,333,334,
335,336,337,338,339,340,341,342,343,344,345,346,347,348,349,
350,351,352,353,354,355,356,357,358,359,360,361,362,363,364,
365,366,367,368,369,370,371,372,373,374,375,376,377,378,379,
380,381,382,383,384,385,386,387,388,389,390,391,392,393,394,
395,396,397,398,399,400,401,402,403,404,405,406,407,408,409,
410,411,412,413,414,415,416,417,418,419,420,421,422,423,424,
425,426,427,428,429,430,431,432,433,434,435,436,437,438,439,
440,441,442,443,444,445,446,447,448,449,450,451,452,453,454,
455,456,457,458,459,460,461,462,463,464,465,466,467,468,469,
470,471,472,473,474,475,476,477,478,479,480,481,482,483,484,
485,486,487,488,489,490,491,492,493,494,495,496,497,498,499,
500,501,502,503,504,505,506,507,508,509,510,511,512,513,514,
515,516,517,518,519,520,521,522,523,524,525,526,527,528,529,
530,531,532,533,534,535,536,537,538,539,540,541,542,543,544,
545,546,547,548,549,550,551,552,553,554,555,556,557,558,559,
560,561,562,563,564,565,566,567,568,569,570,571,572,573,574,
575,576,577,578,579,580,581,582,583,584,585,586,587,588,589,
** ... 117 like lines cut
*NSET, NSET=n_free_saddle
42,43,44,45,46,47,48,49,50,51,52,53,54,55,
825,831,832,833,834,841,849,850,866,872,873,874,875,876,892,
898,899,904,910,911,912,913,914,915,916,932,938,939,944,950,
951,952,953,965,970,976,977,984,992,993,994,995,1000,1006,1007,
5437,5439,5440,5444,5446,5450,5479,5487,5488,5489,5519,5520,5521,5522,5530,
5534,5552,5557,5558,5568,5586,5594,5595,5596,5597,5627,5628,5634,5635,5636,
5670,5672,5688,5689,5690,5691,5692,5693,5694,5695,5696,5697,5698,5699,5703,
5708,5709,5725,5738,5743,5744,5767,5768,5775,5776,5777,5778,5786,5790,5808,
5815,5816,5817,5844,5850,5851,5869,5875,5883,5885,5886,5890,5892,5896,5925,
5933,5934,5935,5936
*ELSET, ELSET=free_saddle
2513,2515,2517,2520,2547,2548,2570,2571,2576,2579,2596,2609,2621,2622,
2623,2678,2679,2683,2686,2687,2688,2689,2690,2691,2693,2705,2717,2732,2733,
2740,2741,2746,2749,2767,2768,2791,2802,2807,2814,2816,2818,2821,2848,2849,2850
*NSET, NSET=n_fix_saddle
56,57,58,59,60,61,62,63,64,65,66,67,68,69,
1012,1018,1019,1020,1021,1028,1036,1037,1053,1059,1060,1061,1062,1063,1079,
1085,1086,1091,1097,1098,1099,1100,1101,1102,1103,1119,1125,1126,1131,1137,
1138,1139,1140,1152,1157,1163,1164,1171,1179,1180,1181,1182,1187,1193,1194,
5966,5968,5969,5973,5975,5979,6010,6016,6017,6018,6048,6049,6050,6051,6059,
6063,6080,6086,6087,6097,6116,6123,6124,6125,6126,6156,6157,6163,6164,6165,
6199,6201,6217,6218,6219,6220,6221,6222,6223,6224,6225,6226,6227,6228,6232,
6237,6238,6254,6267,6272,6273,6296,6297,6304,6305,6306,6307,6315,6319,6337,
6344,6345,6346,6372,6379,6380,6398,6404,6412,6414,6415,6419,6421,6425,6456,
6462,6463,6464,6465
*ELSET, ELSET=fix_saddle
2871,2873,2875,2878,2905,2906,2928,2929,2934,2937,2954,2967,2979,2980,
2981,3036,3037,3041,3044,3045,3046,3047,3048,3049,3051,3063,3075,3090,3091,
3098,3099,3104,3107,3125,3126,3149,3160,3165,3172,3174,3176,3179,3206,3207,3208
*NSET, NSET=n_head1
1,2,3,71,72,73,74,75,76,77,78,79,80,81,
82,83,84,85,86,87,88,89,90,91,92,93,94,95,96,
97,98,99,100,101,102,103,104,105,106,107,108,109,110,111,
112,113,114,115,116,117,118,119,120,121,122,123,124,125,126,
127,128,129,130,131,132,133,134,135,136,137,138,139,140,141,
142,143,144,145,146,147,148,149,150,151,152,153,154,155,156,
157,158,159,160,161,162,163,164,165,166,167,168,169,170,171,
172,173,174,175,176,177,178,179,180,181,182,183,184,185,186,
187,188,189,190,191,192,193,194,195,196,197,198,199,200,1195,
1196,1197,1198,1199,1200,1201,1202,1203,1204,1205,1206,1207,1208,1209,1210,
1211,1212,1213,1214,1215,1216,1217,1218,1219,1220,1221,1222,1223,1224,1225,
1226,1227,1228,1229,1230,1231,1232,1233,1234,1235,1236,1237,1238,1239,1240,
1241,1242,1243,1244,1245,1246,1247,1248,1249,1250,1251,1252,1253,1254,1255,
1256,1257,1258,1259,1260,1261,1262,1263,1264,1265,1266,1267,1268,1269,1270,
1271,1272,1273,1274,1275,1276,1277,1278,1279,1280,1281,1282,1283,1284,1285,
1286,1287,1288,1289,1290,1291,1292,1293,1294,1295,1296,1297,1298,1299,1300,
1301,1302,1303,1304,1305,1306,1307,1308,1309,1310,1311,1312,1313,1314,1315,
1316,1317,1318,1319,1320,1321,1322,1323,1324,1325,1326,1327,1328,1329,1330,
1331,1332,1333,1334,1335,1336,1337,1338,1339,1340,1341,1342,1343,1344,1345,
1346,1347,1348,1349,1350,1351,1352,1353,1354,1355,1356,1357,1358,1359,1360,
** ... 30 like lines cut
*ELSET, ELSET=head1
1,2,3,4,5,6,7,8,9,10,11,12,13,14,
15,16,17,18,19,20,21,22,23,24,25,26,27,28,29,
30,31,32,33,34,35,36,37,38,39,40,41,42,43,44,
45,46,47,48,49,50,51,52,53,54,55,56,57,58,59,
60,61,62,63,64,65,66,67,68,69,70,71,72,73,74,
75,76,77,78,79,80,81,82,83,84,85,86,87,88,89,
90,91,92,93,94,95,96,97,98,99,100,101,102,103,104,
105,106,107,108,109,110,111,112,113,114,115,116,117,118,119,
120,121,122,123,124,125,126,127,128,129,130,131,132,133,134,
135,136,137,138,139,140,141,142,143,144,145,146,147,148,149,
150,151,152,153,154,155,156,157,158,159,160,161,162,163,164,
165,166,167,168,169,170,171,172,173,174,175,176,177,178,179,
180,181,182,183,184,185,186,187,188,189,190,191,192,193,194,
195,196,197,198,199,200,201,202,203,204,205,206,207,208,209,
210,211,212,213,214,215,216,217,218,219,220,221,222,223,224,
225,226,227,228,229,230,231,232,233,234,235,236,237,238,239,
240,241,242,243,244,245,246,247,248,249,250,251,252,253,254,
255,256,257,258,259,260,261,262,263,264,265,266,267,268,269,
270,271,272,273,274,275,276,277,278,279,280,281,282,283,284,
285,286,287,288,289,290,291,294,297,298,299,300,303,304,308,
** ... 4 like lines cut

*MATERIAL,NAME=EL
*DENSITY
7850e-12
*ELASTIC
210000.0, 0.3
*EXPANSION, TYPE=ISO, ZERO=0
1.17e-05, 100

*SHELL SECTION,MATERIAL=EL,ELSET=Eall,offset=-0.5
50
*SHELL SECTION,MATERIAL=EL,ELSET=shell,offset=-0.5
50
*SHELL SECTION,MATERIAL=EL,ELSET=head1,offset=-0.5
50
*SHELL SECTION,MATERIAL=EL,ELSET=head2,offset=-0.5
50

*NODAL THICKNESS
n_shell, 50
n_head1, 50
n_head2, 50
*BOUNDARY
n_fix_saddle,1,3
n_free_saddle,2
n_free_saddle,3

*STEP
*STATIC

*INITIAL CONDITIONS, TYPE=TEMPERATURE
Nall, 20
*TEMPERATURE
Nall, 50
*DLOAD
Eall, GRAV, 9810, 0,0,-1
Shell, P1, 30
head1, P1, 30
head2, P1, 30
***EL PRINT, ELSET=EAll
**S
***NODE PRINT, NSET=NAll
**U
*NODE FILE
U
*EL FILE, OUTPUT=3d
S
*END STEP
