*NODE, NSET=Nall
**3585
1,-0.4875,2.55,-0.844375
2,-0.427789,2.55,-0.869108
3,-0.36852,2.55,-0.893658
4,-0.306372,2.55,-0.919401
5,-0.252349,2.55,-0.941778
6,-0.280554,2.478907,-0.930094
7,-0.272426,2.606609,-0.927906
8,-0.475709,2.47837,-0.849259
9,-0.462382,2.609782,-0.84654
10,-0.398321,2.608497,-0.873955
11,-0.343189,2.482986,-0.90415
12,-0.335878,2.607809,-0.900553
13,-0.207134,2.598291,-0.945343
14,-0.541989,2.47319,-0.802564
15,-0.181293,2.529505,-0.951132
16,-0.410359,2.481564,-0.876328
17,-0.217291,2.466911,-0.946393
18,-0.523844,2.607235,-0.806773
19,-0.565835,2.542225,-0.784266
20,-0.451844,2.409703,-0.859144
** ... 3565 like lines cut
**0
**7166
*ELEMENT, TYPE=S3, ELSET=Eall
1, 4, 5, 6
2, 5, 4, 7
3, 1, 2, 8
4, 2, 1, 9
5, 3, 2, 10
6, 2, 9, 10
7, 3, 4, 11
8, 4, 6, 11
9, 4, 3, 12
10, 7, 4, 12
11, 3, 10, 12
12, 5, 7, 13
13, 1, 8, 14
14, 5, 13, 15
15, 2, 3, 16
16, 6, 5, 17
17, 5, 15, 17
18, 8, 2, 16
19, 9, 1, 18
20, 16, 3, 11
** ... 7146 like lines cut
*NSET, NSET=n_head2
1,2,3,4,5,6,7,8,9,10,11,12,13,14,
15,16,17,18,19,21,24,26,27,28,29,30,31,33,34,
35,36,39,40,41,43,44,45,46,48,50,51,52,53,56,
59,61,62,66,68,69,70,71,72,75,78,79,80,81,83,
84,87,88,89,91,93,94,95,96,97,99,100,103,104,107,
108,109,110,111,113,114,115,116,117,119,120,122,124,127,128,
129,131,134,137,138,141,142,143,144,145,146,147,149,150,151,
152,155,157,158,160,162,166,169,170,171,172,176,177,178,181,
182,183,185,188,190,191,192,193,194,198,201,202,204,205,206,
207,210,213,216,219,220,221,222,223,226,229,232,233,234,237,
238,241,242,244,247,248,250,252,253,254,256,260,261,263,264,
266,269,270,271,273,276,279,280,281,282,283,284,285,286,287,
288,290,295,298,299,300,302,305,308,309,310,311,312,315,319,
320,322,323,325,328,329,330,331,333,334,338,339,341,342,343,
344,345,347,348,349,351,353,358,365,367,368,370,372,373,375,
376,377,378,380,382,386,387,388,390,391,392,394,396,397,399,
401,402,403,405,407,409,413,414,418,422,425,426,428,432,433,
434,436,437,438,439,440,441,445,447,449,450,451,452,453,456,
458,459,461,465,468,472,473,476,478,479,482,483,484,485,486,
487,490,492,495,496,497,498,500,501,504,505,506,509,510,512,
** ... 52 like lines cut
*ELSET, ELSET=head2
1,2,3,4,5,6,7,8,9,10,11,12,13,14,
15,16,17,18,19,20,21,22,24,28,31,32,33,34,35,
36,37,39,40,41,42,43,45,46,48,49,53,54,55,56,
58,59,60,61,62,63,66,67,68,70,72,73,74,75,76,
77,81,82,83,89,90,92,93,98,102,103,104,105,106,107,
108,109,114,115,120,121,122,123,124,125,126,130,131,132,133,
136,137,138,140,141,144,145,146,147,148,149,150,151,152,153,
158,159,160,165,166,167,168,172,173,174,176,178,179,180,181,
182,185,186,187,188,189,190,191,192,193,195,196,198,199,200,
202,208,209,211,212,213,214,215,217,218,222,223,229,230,235,
236,237,239,243,244,245,246,247,248,249,250,252,253,254,255,
256,257,260,263,264,265,267,268,270,271,273,274,275,282,283,
284,286,290,291,292,293,294,295,296,297,298,306,307,308,311,
312,313,315,316,320,321,324,325,326,327,328,329,330,332,333,
334,335,336,339,342,347,348,349,354,355,356,357,358,360,365,
366,367,369,370,375,376,386,387,388,389,390,393,394,398,402,
403,404,405,406,407,412,413,414,415,416,420,421,422,423,424,
427,430,432,433,437,438,443,444,447,448,449,450,451,453,454,
459,462,464,466,468,469,471,474,475,476,483,484,487,488,489,
490,491,492,493,494,495,496,497,498,499,501,502,503,504,505,
** ... 118 like lines cut
*NSET, NSET=n_fix_saddle
1358,1416,1433,1506,1547,1565,1583,1595,1603,1629,1635,1659,1667,1677,
1686,1751,1759,1768,1787,1790,1799,1806,1847,1850,1855,1868,1892,1900,1906,
1922,1928,1937,1947,1951,1969,1972,1974,1975,1979,2006,2018,2038,2049,2050,
2070,2101,2112,2127,2130,2136,2138,2154,2161,2165,2174,2179,2197,2199,2226,
2235,2236,2274,2307,2312
*ELSET, ELSET=fix_saddle
2856,2941,2942,2973,3004,3081,3082,3093,3177,3178,3195,3207,3319,3327,
3328,3342,3358,3359,3414,3417,3439,3440,3453,3518,3523,3529,3530,3531,3559,
3562,3611,3612,3629,3687,3688,3698,3709,3710,3711,3725,3731,3748,3766,3771,
3773,3775,3777,3778,3779,3780,3835,3836,3862,3890,3914,3915,3916,3943,3944,
3975,4029,4030,4059,4084,4087,4096,4115,4121,4150,4151,4167,4172,4178,4179,
4184,4201,4211,4245,4246,4247,4254,4273,4291,4294,4297,4316,4317,4330,4342,
4343,4346,4377,4419,4490,4509,4514,4515
*NSET, NSET=n_free_saddle
227,230,265,268,278,294,304,313,316,317,321,324,356,361,
363,366,369,371,389,393,398,419,420,421,431,444,446,448,463,
466,471,477,481,489,493,508,520,523,527,536,558,563,565,568,
580,584,604,607,610,613,644,649,656,664,674,682,690,702,745,
753,789,794,804,819
*ELSET, ELSET=free_saddle
486,512,515,564,573,576,577,597,598,621,648,654,666,669,
670,671,687,699,700,707,717,739,762,763,766,780,807,808,811,
812,816,833,848,849,853,865,873,876,880,894,900,923,928,935,
936,946,962,966,967,968,977,990,1008,1028,1039,1043,1049,1051,1052,
1076,1084,1089,1107,1115,1119,1123,1130,1131,1147,1176,1191,1212,1213,1220,
1225,1234,1247,1253,1254,1260,1267,1280,1281,1307,1308,1318,1386,1403,1404,
1481,1489,1496,1500,1508,1530,1532
*NSET, NSET=n_shell
1,2,3,4,5,6,8,11,14,15,16,17,19,20,
22,23,25,29,32,35,36,37,38,42,45,47,49,50,54,
55,56,57,58,60,62,63,64,65,67,70,71,73,74,75,
76,77,82,85,86,90,92,98,100,101,102,105,106,109,111,
112,113,118,121,123,125,126,130,132,133,135,136,138,139,140,
142,143,148,150,153,154,156,159,161,162,163,164,165,167,168,
173,174,175,178,179,180,182,184,186,187,189,194,195,196,197,
199,200,203,205,208,209,211,212,214,215,216,217,218,223,224,
225,227,228,229,230,231,235,236,239,240,243,245,246,249,250,
251,255,257,258,259,262,265,267,268,271,272,273,274,275,276,
277,278,289,291,292,293,294,296,297,298,301,303,304,306,307,
313,314,316,317,318,320,321,324,326,327,329,332,335,336,337,
340,343,346,347,350,352,354,355,356,357,359,360,361,362,363,
364,366,367,368,369,371,374,379,380,381,383,384,385,386,389,
393,395,398,400,404,406,408,410,411,412,413,415,416,417,419,
420,421,423,424,427,429,430,431,432,435,442,443,444,446,448,
450,453,454,455,457,459,460,462,463,464,466,467,469,470,471,
472,473,474,475,477,480,481,483,488,489,491,493,494,499,501,
502,503,507,508,511,513,514,515,517,520,522,523,524,526,527,
532,534,536,537,541,543,544,547,551,553,555,557,558,561,563,
** ... 112 like lines cut
*ELSET, ELSET=shell
1,3,7,8,13,15,16,17,18,20,22,23,25,26,
27,29,30,38,44,46,47,48,49,50,51,52,57,64,65,
69,71,78,79,80,81,82,83,84,85,86,87,88,91,93,
94,95,96,97,99,100,101,106,110,111,112,113,114,115,116,
117,118,119,127,128,129,134,135,139,142,143,154,155,156,157,
160,161,162,163,164,169,170,171,175,176,177,181,183,184,194,
197,201,203,204,205,206,207,210,216,219,220,221,224,225,226,
227,228,230,231,232,233,234,236,237,238,239,240,241,242,251,
253,258,259,261,262,266,269,271,272,276,277,278,279,280,281,
285,287,288,289,299,300,301,302,303,304,305,308,309,310,314,
317,318,319,322,323,331,335,337,338,340,341,343,344,345,346,
350,351,352,353,355,358,359,361,362,363,364,368,371,372,373,
374,377,378,379,380,381,382,383,384,385,390,391,392,395,396,
397,399,400,401,408,409,410,411,417,418,419,425,426,428,429,
431,433,434,435,436,439,440,441,442,443,444,445,446,452,455,
456,457,458,460,461,463,465,467,470,472,473,476,477,478,479,
480,481,482,484,485,486,500,506,509,510,512,513,514,515,518,
519,520,521,522,526,528,529,531,532,533,534,539,540,541,544,
545,546,547,551,552,553,554,564,565,567,568,569,571,572,573,
576,577,579,580,581,582,583,588,594,597,598,599,600,601,602,
** ... 234 like lines cut
*NSET, NSET=n_head1
2523,2542,2545,2546,2560,2568,2584,2587,2589,2594,2597,2603,2609,2613,
2616,2619,2624,2625,2627,2629,2634,2636,2637,2639,2642,2643,2648,2649,2652,
2658,2661,2663,2666,2670,2672,2673,2674,2675,2676,2677,2678,2686,2687,2689,
2690,2692,2695,2696,2697,2698,2700,2705,2709,2710,2711,2713,2715,2716,2718,
2719,2720,2721,2723,2725,2726,2728,2730,2732,2737,2741,2742,2744,2745,2746,
2748,2749,2750,2751,2758,2759,2760,2762,2764,2767,2768,2769,2770,2771,2772,
2773,2774,2776,2777,2779,2781,2782,2786,2787,2788,2789,2791,2792,2793,2795,
2798,2801,2802,2804,2806,2808,2809,2810,2811,2812,2813,2814,2815,2816,2817,
2818,2821,2822,2823,2824,2825,2826,2828,2829,2831,2832,2833,2835,2837,2838,
2841,2843,2844,2845,2846,2847,2848,2849,2850,2852,2853,2854,2857,2858,2859,
2861,2865,2868,2870,2871,2872,2873,2874,2875,2876,2877,2878,2879,2880,2881,
2883,2884,2885,2886,2887,2888,2889,2891,2894,2895,2897,2898,2899,2901,2903,
2904,2905,2906,2907,2908,2909,2911,2912,2913,2914,2915,2916,2917,2918,2919,
2920,2921,2922,2923,2924,2926,2927,2928,2929,2930,2932,2933,2934,2935,2938,
2939,2940,2942,2943,2944,2946,2948,2950,2951,2952,2953,2954,2955,2956,2957,
2958,2959,2960,2961,2962,2963,2966,2967,2969,2970,2971,2972,2974,2976,2977,
2979,2980,2982,2983,2984,2985,2986,2987,2988,2989,2990,2991,2992,2993,2994,
2995,2997,2998,2999,3000,3001,3003,3004,3005,3006,3007,3008,3009,3010,3012,
3013,3014,3016,3017,3019,3021,3022,3023,3024,3025,3026,3027,3028,3029,3031,
3032,3033,3034,3035,3036,3037,3038,3039,3040,3041,3042,3043,3044,3045,3046,
** ... 35 like lines cut
*ELSET, ELSET=head1
5098,5099,5113,5144,5151,5177,5181,5191,5192,5194,5195,5199,5201,5208,
5209,5210,5215,5219,5222,5223,5236,5250,5255,5266,5267,5268,5269,5270,5271,
5272,5274,5287,5295,5296,5297,5298,5301,5302,5303,5305,5309,5310,5313,5314,
5315,5316,5317,5320,5321,5323,5324,5325,5329,5338,5339,5342,5346,5348,5356,
5357,5358,5360,5361,5363,5364,5365,5366,5367,5368,5372,5374,5378,5380,5383,
5397,5398,5399,5400,5401,5406,5407,5408,5409,5411,5414,5415,5418,5420,5421,
5422,5423,5425,5426,5443,5444,5445,5446,5447,5450,5451,5453,5456,5461,5463,
5464,5465,5466,5467,5468,5469,5471,5472,5474,5478,5479,5480,5487,5488,5489,
5490,5491,5492,5493,5494,5497,5498,5499,5500,5504,5510,5511,5512,5515,5518,
5519,5520,5523,5524,5525,5528,5532,5533,5534,5535,5536,5537,5538,5539,5540,
5541,5543,5544,5547,5548,5549,5550,5551,5552,5555,5556,5557,5558,5562,5563,
5564,5565,5566,5567,5568,5569,5572,5573,5574,5576,5577,5578,5580,5582,5583,
5588,5591,5592,5593,5594,5595,5596,5597,5598,5599,5600,5601,5602,5603,5604,
5605,5606,5607,5608,5610,5611,5612,5614,5615,5616,5619,5622,5623,5624,5625,
5626,5627,5629,5634,5636,5642,5643,5654,5655,5656,5657,5658,5659,5660,5661,
5662,5664,5665,5666,5667,5668,5669,5671,5672,5673,5674,5675,5676,5677,5678,
5680,5681,5682,5684,5685,5686,5687,5688,5690,5696,5697,5698,5701,5702,5705,
5708,5709,5710,5711,5712,5713,5714,5716,5720,5721,5722,5723,5724,5725,5726,
5727,5728,5729,5730,5731,5732,5733,5734,5735,5736,5737,5738,5739,5740,5741,
5742,5743,5744,5745,5746,5747,5748,5749,5752,5753,5755,5756,5757,5759,5760,
** ... 88 like lines cut

*MATERIAL,NAME=EL
*DENSITY
7850
*ELASTIC
210000000000.0, 0.3
*EXPANSION TYPE=ISO, ZERO=0
1.17e-05, 100
*SHELL SECTION,MATERIAL=EL,ELSET=shell,offset=-0.5
0.05
*SHELL SECTION,MATERIAL=EL,ELSET=head1,offset=-0.5
0.05
*SHELL SECTION,MATERIAL=EL,ELSET=head2,offset=-0.5
0.05

*NODAL THICKNESS
n_shell, 0.05
n_head1, 0.05
n_head2, 0.05
*BOUNDARY
n_fix_saddle,1,6
n_free_saddle,1
n_free_saddle,3,6

*STEP
*STATIC

*INITIAL CONDITIONS, TYPE=TEMPERATURE
Nall, 20
*TEMPERATURE
Nall, 50
*DLOAD
Eall, GRAV, 9.81, 0,0,-1
Eall, P1, 3000000.0
*EL PRINT, ELSET=EAll
S
*NODE PRINT, NSET=NAll
U
*NODE FILE
U
*EL FILE, OUTPUT=3d
S
*END STEP
