** Generated by Mecway 6.0
*NODE
1,0,6.562697276318E-19,-0.005
2,-0.005,3.440195019559E-19,-0.005
3,-0.005,-0.005,-5.000279696355E-11
4,3.122502256758E-19,-0.005,-2.994944638552E-16
5,-2.978015285861E-33,-1.644994134046E-18,-0.01
6,-0.005,-1.728396810678E-18,-0.01
7,-0.005,-0.01,-2.984279490192E-16
8,8.881784197001E-19,-0.01,-2.984279490192E-16
9,-3.122502256758E-19,0.005,-5.000279666749E-11
10,-0.005,0.005,-2.99198404382E-16
11,-8.881784197001E-19,0.01,-2.984279490192E-16
12,-0.005,0.01,-2.984279490192E-16
13,-0.005,-5.000249925809E-11,0.005
14,1.622846326723E-33,-1.476759944323E-18,0.005
15,-0.005,-0.01,0.01
16,-0.005,-1.726129922647E-18,0.01
17,-7.961978831464E-33,-1.726129922647E-18,0.01
18,8.881784197001E-19,-0.01,0.01
19,-8.881784197001E-19,0.01,0.01
20,-0.005,0.01,0.01
** ... 11110 like lines cut
*ELEMENT,TYPE=C3D20R
1,35,4,115,2153,598,63,723,2297,285,384,2212,2211,1074,1398,2690,
2618,1071,321,1395,2619
2,598,63,723,2297,597,62,722,2298,1074,1398,2690,2618,1073,1397,2691,
2621,1069,320,1393,2622
3,597,62,722,2298,596,61,721,2299,1073,1397,2691,2621,1072,1396,2692,
2624,1067,319,1391,2625
4,596,61,721,2299,60,8,140,726,1072,1396,2692,2624,317,417,1407,
1408,1065,318,1389,2626
5,2153,115,116,2154,2297,723,720,2300,2212,385,2214,2213,2690,1394,2693,
2628,2619,1395,1388,2629
6,2297,723,720,2300,2298,722,719,2301,2690,1394,2693,2628,2691,1392,2694,
2631,2622,1393,1386,2632
7,2298,722,719,2301,2299,721,718,2302,2691,1392,2694,2631,2692,1390,2695,
2634,2625,1391,1384,2635
8,2299,721,718,2302,726,140,139,725,2692,1390,2695,2634,1407,416,1404,
1406,2626,1389,1382,2636
9,2154,116,117,2155,2300,720,717,2303,2214,386,2216,2215,2693,1387,2696,
2638,2629,1388,1381,2639
10,2300,720,717,2303,2301,719,716,2304,2693,1387,2696,2638,2694,1385,2697,
2641,2632,1386,1379,2642
** ... 3564 like lines cut
*NSET,NSET=SetHoleSX
3246
3247
3251
3252
3257
3259
3262
3264
3606
3607
3608
3609
3610
3611
3612
3622
3623
3624
3625
3626
** ... 236 like lines cut
*NSET,NSET=SetHoleDX
3201
3202
3203
3204
3209
3210
3213
3214
3265
3266
3267
3268
3269
3270
3271
3272
3273
3274
3275
3276
** ... 236 like lines cut
*NSET,NSET=SETHoleC
3227
3229
3230
3232
3233
3234
3239
3242
3497
3498
3499
3500
3501
3502
3503
3508
3511
3512
3513
3514
** ... 236 like lines cut
*NSET,NSET=SETHoleBar
1
2
3
4
9
10
13
14
27
28
29
30
31
32
33
34
35
36
37
38
** ... 236 like lines cut
*NSET,NSET=displacement_nodes
25
26
*NSET,NSET=displacement_nodes(2)
23
26
3218
3223
3254
3255
*ELSET,ELSET=Geometric_entity_3
1
2
3
4
5
6
7
8
9
10
11
12
13
14
15
16
17
18
19
20
** ... 492 like lines cut
*ELSET,ELSET=Geometric_entity_3(2)
513
514
515
516
517
518
519
520
521
522
523
524
525
526
527
528
529
530
531
532
** ... 1260 like lines cut
*SURFACE,NAME=Geometric_entity_2
385,S3
473,S4
353,S3
477,S4
386,S3
474,S4
354,S3
478,S4
387,S3
475,S4
355,S3
479,S4
388,S3
476,S4
356,S3
480,S4
384,S6
380,S6
376,S6
372,S6
** ... 764 like lines cut
*SURFACE,NAME=Load
103,S6
104,S6
101,S6
102,S6
99,S6
100,S6
97,S6
98,S6
348,S4
352,S4
347,S4
351,S4
346,S4
350,S4
345,S4
349,S4
*SURFACE,NAME=HOLEBAR
385,S1
389,S1
393,S1
397,S1
401,S1
405,S1
409,S1
413,S1
353,S1
357,S1
361,S1
365,S1
369,S1
373,S1
377,S1
381,S1
473,S1
477,S1
465,S1
469,S1
** ... 44 like lines cut
*SURFACE,NAME=Geometric_entity_2(2)
676,S6
669,S5
668,S4
664,S4
660,S4
656,S4
652,S4
672,S5
644,S4
637,S6
636,S6
632,S6
628,S6
624,S6
620,S6
640,S6
610,S6
734,S5
611,S6
735,S5
** ... 1964 like lines cut
*SURFACE,NAME=HOLESX
1233,S4
1135,S6
1133,S6
1131,S6
1129,S6
1127,S6
1125,S6
1123,S6
1136,S6
1134,S6
1132,S6
1130,S6
1128,S6
1126,S6
1124,S6
1122,S6
1234,S4
1235,S4
1236,S4
1237,S4
** ... 44 like lines cut
*SURFACE,NAME=HOLEC
929,S3
879,S6
877,S6
875,S6
873,S6
871,S6
869,S6
867,S6
880,S6
878,S6
876,S6
874,S6
872,S6
870,S6
868,S6
866,S6
962,S3
930,S3
963,S3
931,S3
** ... 44 like lines cut
*SURFACE,NAME=HOLEDX
645,S1
649,S1
653,S1
657,S1
661,S1
665,S1
669,S1
673,S1
613,S1
617,S1
621,S1
625,S1
629,S1
633,S1
637,S1
641,S1
733,S1
737,S1
725,S1
729,S1
** ... 44 like lines cut
*MATERIAL,NAME=Material
*ELASTIC,TYPE=ISOTROPIC
210000000000,0.3
*SOLID SECTION,ELSET=Geometric_entity_3,MATERIAL=Material
*SOLID SECTION,ELSET=Geometric_entity_3(2),MATERIAL=Material
*BOUNDARY
23,1,,0
25,2,,0
26,2,,0
26,1,,0
3201,1,,0
3202,1,,0
3203,1,,0
3204,1,,0
3209,1,,0
3210,1,,0
3213,1,,0
3214,1,,0
3218,1,,0
3223,1,,0
3246,1,,0
3247,1,,0
3251,1,,0
3252,1,,0
3254,1,,0
3255,1,,0
** ... 500 like lines cut
**Transform for local cylindrical


*TRANSFORM, NSET=SetHoleSx,TYPE=C

0,-0.075,0 ,1,-0.075,0

*TRANSFORM, NSET=SetHoleDx,TYPE=C

0,0.075,0 ,1,0.075,0

*RIGID BODY, NSET=SetHoleC, REF NODE=11129

*RIGID BODY, NSET=SetHoleBar, REF NODE=11128

*Equation
2
11129,1,1,11128,1,-1

*Equation
2
11129,2,1,11128,2,-1

*Equation
2
11129,3,1,11128,3,-1

*STEP
*STATIC
*CLOAD
174,3,-1.041666666667
22,3,-1.041666666667
2113,3,-2.083333333333
182,3,-2.083333333333
473,3,2.083333333333
2119,3,4.166666666667
508,3,4.166666666667
2120,3,4.166666666667
183,3,-1.041666666667
24,3,-1.041666666667
2121,3,4.166666666667
509,3,4.166666666667
510,3,2.083333333333
173,3,-1.041666666667
2114,3,-2.083333333333
472,3,2.083333333333
2122,3,4.166666666667
2123,3,4.166666666667
184,3,-1.041666666667
2124,3,4.166666666667
** ... 49 like lines cut
*NODE FILE,GLOBAL=YES
U,RF
*EL FILE
S
*END STEP
