*node, nset=Nall
1, 1.000000e+000, 0.000000e+000, 1.000000e+001
2, 1.000000e+000, 1.500000e+000, 1.000000e+001
3, 1.000000e+000, 0.000000e+000, 7.500000e+000
4, 1.000000e+000, 1.500000e+000, 0.000000e+000
5, 1.000000e+000, 0.000000e+000, 2.500000e+000
6, 1.000000e+000, 0.000000e+000, 0.000000e+000
7, 0.000000e+000, 0.000000e+000, 1.000000e+001
8, 0.000000e+000, 1.500000e+000, 1.000000e+001
9, 0.000000e+000, 0.000000e+000, 7.500000e+000
10, 0.000000e+000, 1.500000e+000, 0.000000e+000
11, 0.000000e+000, 0.000000e+000, 2.500000e+000
12, 0.000000e+000, 0.000000e+000, 0.000000e+000
13, 1.000000e+000, -2.500000e-001, 7.500000e+000
14, 1.000000e+000, -2.500000e-001, 2.500000e+000
15, 0.000000e+000, -2.500000e-001, 2.500000e+000
16, 0.000000e+000, -2.500000e-001, 7.500000e+000
17, 1.000000e+000, 0.000000e+000, 5.023521e-001
18, 1.000000e+000, 0.000000e+000, 1.004704e+000
19, 1.000000e+000, 0.000000e+000, 1.507056e+000
20, 1.000000e+000, 0.000000e+000, 2.009409e+000
** ... 2022 like lines cut
*nset, nset=load
2, 4, 8, 10, 63, 406, 407, 
36, 375, 37, 376, 38, 377, 39, 378, 
40, 379, 41, 380, 42, 381, 43, 382, 
44, 383, 45, 384, 46, 385, 47, 386, 
48, 387, 49, 388, 50, 389, 51, 390, 
52, 391, 53, 392, 54, 393, 394, 71, 
418, 419, 72, 420, 73, 421, 74, 422, 
75, 423, 76, 424, 77, 425, 78, 426, 
79, 427, 80, 428, 81, 429, 82, 430, 
83, 431, 84, 432, 85, 433, 86, 434, 
87, 435, 88, 436, 89, 437, 90, 438, 
439, 736, 737, 198, 738, 739, 199, 740, 
741, 742, 200, 743, 744, 745, 201, 746, 
747, 748, 202, 749, 750, 751, 203, 752, 
753, 754, 204, 755, 756, 757, 205, 758, 
759, 760, 206, 761, 762, 763, 207, 764, 
765, 766, 208, 767, 768, 769, 209, 770, 
771, 772, 210, 773, 774, 775, 211, 776, 
777, 778, 212, 779, 780, 781, 213, 782, 
783, 784, 214, 785, 786, 787, 215, 788, 
** ... 6 like lines cut
*nset, nset=sup2
12, 6, 108, 460, 461, 
*nset, nset=sup1
1, 7, 64, 408, 409, 
*element, elset=C3D10,type=C3D10
835, 348, 169, 211, 349, 1360, 1362, 1359, 1361, 1364, 1363, 
836, 256, 286, 97, 231, 1104, 1084, 1000, 1365, 1366, 873, 
837, 110, 250, 335, 109, 984, 1368, 1367, 463, 985, 1369, 
838, 45, 46, 207, 167, 385, 765, 764, 575, 574, 1370, 
839, 75, 263, 201, 76, 1017, 1371, 804, 424, 1018, 803, 
840, 333, 144, 249, 334, 1373, 1375, 1372, 1374, 1377, 1376, 
841, 254, 299, 342, 341, 1145, 1380, 1378, 1379, 1382, 1381, 
842, 271, 209, 83, 84, 1383, 820, 1041, 1042, 819, 432, 
843, 165, 151, 152, 341, 683, 534, 657, 1384, 1386, 1385, 
844, 278, 338, 290, 336, 1387, 1389, 1115, 1388, 1391, 1390, 
845, 181, 334, 335, 143, 1393, 1394, 1392, 658, 1396, 1395, 
846, 217, 226, 341, 329, 939, 1399, 1397, 1398, 1401, 1400, 
847, 198, 260, 252, 335, 1403, 1010, 1402, 1404, 1406, 1405, 
848, 106, 244, 335, 108, 948, 1408, 1407, 946, 958, 1409, 
849, 240, 154, 27, 153, 1410, 538, 902, 1411, 540, 536, 
850, 340, 339, 191, 329, 1413, 1415, 1412, 1414, 1417, 1416, 
851, 236, 259, 348, 288, 1419, 1421, 1418, 1420, 1112, 1422, 
852, 188, 171, 351, 172, 669, 1424, 1423, 668, 586, 1425, 
853, 80, 344, 81, 268, 1426, 1427, 429, 1032, 1428, 1033, 
854, 231, 344, 343, 256, 1430, 1431, 1429, 1365, 1433, 1432, 
** ... 1021 like lines cut

*elset, elset=reinf
879, 887, 944, 945, 946, 949, 1014, 
1043, 1045, 1053, 1061, 1072, 1092, 1102, 1106, 
1131, 1136, 1137, 1146, 1152, 1155, 1164, 1181, 
1186, 1190, 1205, 1214, 1236, 1238, 1262, 1267, 
1271, 1316, 1321, 1324, 1334, 1340, 1348, 1349, 
1362, 1377, 1393, 1402, 1409, 1426, 1435, 1436, 
1441, 1448, 1451, 1453, 1477, 1482, 1501, 1518, 
1520, 1523, 1524, 1539, 1541, 1551, 1559, 1575, 
1577, 1582, 1609, 1611, 1619, 1628, 1629, 1634, 
1638, 1646, 1657, 1660, 1677, 1685, 1686, 1690, 
1691, 1692, 1693, 1694, 1695, 1696, 1697, 1698, 
1699, 1700, 1701, 1702, 1703, 1704, 1705, 1706, 
1707, 1708, 1709, 1710, 1711, 1712, 1713, 1714, 
1715, 1716, 1717, 1718, 1719, 1720, 1721, 1722, 
1723, 1724, 1725, 1726, 1727, 1728, 1729, 1730, 
1731, 1732, 1733, 1734, 1735, 1736, 1737, 1738, 
1739, 1740, 1741, 1742, 1743, 1744, 1745, 1746, 
1747, 1748, 1749, 1750, 1751, 1752, 1753, 1754, 
1755, 1756, 1757, 1758, 1759, 1760, 1761, 1762, 
1763, 1764, 1765, 1766, 1767, 1768, 1769, 1770, 
** ... 14 like lines cut
*elset, elset=body
835, 836, 837, 838, 839, 840, 841, 
842, 843, 844, 845, 846, 847, 848, 849, 
850, 851, 852, 853, 854, 855, 856, 857, 
858, 859, 860, 861, 862, 863, 864, 865, 
866, 867, 868, 869, 870, 871, 872, 873, 
874, 875, 876, 877, 878, 880, 881, 882, 
883, 884, 885, 886, 888, 889, 890, 891, 
892, 893, 894, 895, 896, 897, 898, 899, 
900, 901, 902, 903, 904, 905, 906, 907, 
908, 909, 910, 911, 912, 913, 914, 915, 
916, 917, 918, 919, 920, 921, 922, 923, 
924, 925, 926, 927, 928, 929, 930, 931, 
932, 933, 934, 935, 936, 937, 938, 939, 
940, 941, 942, 943, 947, 948, 950, 951, 
952, 953, 954, 955, 956, 957, 958, 959, 
960, 961, 962, 963, 964, 965, 966, 967, 
968, 969, 970, 971, 972, 973, 974, 975, 
976, 977, 978, 979, 980, 981, 982, 983, 
984, 985, 986, 987, 988, 989, 990, 991, 
992, 993, 994, 995, 996, 997, 998, 999, 
** ... 78 like lines cut


*MATERIAL,NAME=mat1
*ELASTIC
2e11,0.3

*MATERIAL,NAME=mat0
*ELASTIC
1e-2,0.3

*SOLID SECTION,MATERIAL=mat1,ELSET=body
*SOLID SECTION,MATERIAL=mat0,ELSET=reinf

*BOUNDARY
sup1,1,3,0
sup2,1,2,0

*AMPLITUDE,NAME=A1
0,0,1,1,2,1


*STEP,NLGEOM,INC=1000
*STATIC
.1,1.

*CLOAD,AMPLITUDE=A1
load,2,1e3

 *NODE FILE 
U,
*EL FILE
S,
*END STEP

*STEP,NLGEOM,INC=1000
*STATIC
.1,1.

*CHANGE SOLID SECTION,MATERIAL=mat1,ELSET=reinf

*NODE FILE 
U,
*EL FILE
S,
*END STEP



