*NODE
         1,  5.265495371    ,  -2.876553232   ,  33.87298335    
         2,  4.2510009341   ,  -4.234263933   ,  33.87298335    
         3,  2.7162292212   ,  -5.349962506   ,  33.87298335    
         4,  0.9098113839   ,  -5.930619128   ,  33.87298335    
         5,  -0.987595364   ,  -5.918163178   ,  33.87298335    
         6,  -2.786234138   ,  -5.313840356   ,  33.87298335    
         7,  -4.306225699   ,  -4.178088106   ,  33.87298335    
         8,  -5.395557906   ,  -2.624491357   ,  33.87298335    
         9,  -5.945288232   ,  -0.808423053   ,  33.87298335    
        10,  -5.90043895    ,  1.088494461    ,  33.87298335    
        11,  -5.265495371   ,  2.876553232    ,  33.87298335    
        12,  -5.265495371   ,  2.876553232    ,  35.824484275   
        13,  -5.265495371   ,  2.876553232    ,  37.7759852     
        14,  -5.265495371   ,  2.876553232    ,  39.727486125   
        15,  -5.265495371   ,  2.876553232    ,  41.67898705    
        16,  -5.265495371   ,  2.876553232    ,  43.630487975   
        17,  -5.265495371   ,  2.876553232    ,  45.5819889     
        18,  -5.265495371   ,  2.876553232    ,  47.533489825   
        19,  -5.265495371   ,  2.876553232    ,  49.48499075    
        20,  -5.265495371   ,  2.876553232    ,  51.436491675   
** ... 2101 like lines cut
*ELEMENT,TYPE=C3D4,ELSET=Mesh
     10821,       391,       678,      1526,      2022
     10820,      1003,      1908,      1748,      1527
     10819,       599,      1951,       601,      1573
     10818,      1698,        68,      1828,        69
     10817,      1543,      2006,      2012,      1425
     10816,      1003,      1908,      1527,      1025
     10815,       332,      2103,      1445,      1651
     10814,      1527,      1011,      1946,      1748
     10813,       869,      1699,       870,      1904
     10812,      1543,      2006,      1397,      2059
     10811,      2098,      1712,      1860,      1761
     10810,      1151,      1479,      1701,      1864
     10809,      1458,        70,      1435,        90
     10808,      1175,      1953,      1861,      1851
     10807,      1417,      1792,       808,      1833
     10806,      2108,      1935,      2040,      1997
     10805,      1226,      1225,      1227,      1703
     10804,      1718,      1870,      1726,      1076
     10803,      1718,      1598,      1111,      1110
     10802,      1417,      1792,      1372,      1826
** ... 8077 like lines cut
*ELSET, ELSET=E_ALL
      2725,      2726,      2727,      2728,      2729,      2730,      2731,      2732,
      2733,      2734,      2735,      2736,      2737,      2738,      2739,      2740,
      2741,      2742,      2743,      2744,      2745,      2746,      2747,      2748,
      2749,      2750,      2751,      2752,      2753,      2754,      2755,      2756,
      2757,      2758,      2759,      2760,      2761,      2762,      2763,      2764,
      2765,      2766,      2767,      2768,      2769,      2770,      2771,      2772,
      2773,      2774,      2775,      2776,      2777,      2778,      2779,      2780,
      2781,      2782,      2783,      2784,      2785,      2786,      2787,      2788,
      2789,      2790,      2791,      2792,      2793,      2794,      2795,      2796,
      2797,      2798,      2799,      2800,      2801,      2802,      2803,      2804,
      2805,      2806,      2807,      2808,      2809,      2810,      2811,      2812,
      2813,      2814,      2815,      2816,      2817,      2818,      2819,      2820,
      2821,      2822,      2823,      2824,      2825,      2826,      2827,      2828,
      2829,      2830,      2831,      2832,      2833,      2834,      2835,      2836,
      2837,      2838,      2839,      2840,      2841,      2842,      2843,      2844,
      2845,      2846,      2847,      2848,      2849,      2850,      2851,      2852,
      2853,      2854,      2855,      2856,      2857,      2858,      2859,      2860,
      2861,      2862,      2863,      2864,      2865,      2866,      2867,      2868,
      2869,      2870,      2871,      2872,      2873,      2874,      2875,      2876,
      2877,      2878,      2879,      2880,      2881,      2882,      2883,      2884,
** ... 993 like lines cut
*ELSET, ELSET=FIXATION_ELEM
      2824,      2860,      2894,      2896,      2913,      2914,      2976,      2996,
      3003,      3016,      3042,      3141,      3145,      3152,      3197,      3204,
      3242,      3311,      3338,      3352,      3355,      3361,      3362,      3381,
      3385,      3386,      3387,      3389,      3402,      3411,      3413,      3414,
      3441,      3444,      3452,      3475,      3544,      3546,      3547,      3595,
      3618,      3624,      3643,      3651,      3671,      3672,      3678,      3680,
      3683,      3686,      3696,      3697,      3712,      3715,      3719,      3721,
      3722,      3727,      3752,      3777,      3790,      3800,      3812,      3832,
      3845,      3854,      3861,      3864,      3886,      3956,      4018,      4047,
      4052,      4067,      4070,      4077,      4080,      4087,      4093,      4102,
      4105,      4129,      4166,      4183,      4190,      4234,      4262,      4265,
      4270,      4272,      4274,      4275,      4278,      4285,      4308,      4316,
      4325,      4338,      4340,      4350,      4365,      4394,      4423,      4433,
      4443,      4521,      4587,      4622,      4664,      4719,      4726,      4728,
      4730,      4736,      4739,      4740,      4741,      4742,      4752,      4776,
      4783,      4784,      4788,      4795,      4796,      4799,      4800,      4805,
      4811,      4841,      4878,      4880,      4881,      4882,      4884,      4885,
      4889,      4890,      4894,      4914,      4915,      4916,      4929,      4949,
      4954,      4965,      4977,      4978,      4980,      5019,      5069,      5075,
      5093,      5128,      5181,      5184,      5185,      5201,      5223,      5225,
** ... 50 like lines cut
*ELSET, ELSET=LOAD_ELEM
      2807,      2835,      2845,      2877,      2878,      2908,      2927,      2930,
      2965,      2980,      3004,      3069,      3072,      3074,      3082,      3085,
      3090,      3091,      3092,      3093,      3097,      3112,      3116,      3121,
      3159,      3180,      3196,      3199,      3238,      3239,      3243,      3248,
      3252,      3254,      3256,      3258,      3260,      3262,      3264,      3267,
      3275,      3276,      3277,      3282,      3285,      3286,      3291,      3294,
      3314,      3315,      3316,      3319,      3320,      3327,      3347,      3350,
      3357,      3364,      3365,      3367,      3368,      3370,      3374,      3435,
      3463,      3465,      3467,      3468,      3476,      3497,      3498,      3510,
      3511,      3513,      3521,      3537,      3545,      3550,      3556,      3557,
      3558,      3566,      3574,      3581,      3591,      3596,      3608,      3626,
      3666,      3694,      3698,      3699,      3725,      3730,      3731,      3734,
      3735,      3738,      3743,      3744,      3750,      3751,      3760,      3761,
      3771,      3793,      3797,      3811,      3815,      3816,      3817,      3822,
      3828,      3830,      3834,      3841,      3842,      3843,      3847,      3848,
      3855,      3866,      3870,      3871,      3911,      3913,      3916,      3918,
      3923,      3924,      3925,      3926,      3945,      3951,      3952,      3955,
      3962,      3963,      3969,      3970,      3973,      3974,      3978,      3992,
      3994,      3995,      3996,      3997,      4012,      4013,      4044,      4057,
      4058,      4060,      4074,      4083,      4085,      4101,      4143,      4223,
** ... 46 like lines cut
*ELSET, ELSET=STRESS_ELEMENTS
      2725,      2734,      2735,      2745,      2753,      2757,      2760,      2762,
      2764,      2765,      2767,      2768,      2772,      2773,      2775,      2781,
      2788,      2791,      2793,      2798,      2802,      2803,      2804,      2805,
      2806,      2809,      2810,      2822,      2828,      2833,      2834,      2839,
      2842,      2844,      2857,      2859,      2861,      2867,      2873,      2874,
      2882,      2886,      2889,      2892,      2898,      2899,      2901,      2906,
      2928,      2929,      2934,      2936,      2937,      2938,      2939,      2940,
      2941,      2942,      2945,      2947,      2949,      2952,      2964,      2975,
      2977,      2979,      2981,      2986,      2988,      2990,      2992,      2994,
      2997,      2999,      3005,      3007,      3009,      3010,      3011,      3012,
      3014,      3015,      3018,      3023,      3030,      3041,      3044,      3046,
      3048,      3052,      3060,      3061,      3062,      3063,      3065,      3068,
      3081,      3099,      3101,      3104,      3108,      3109,      3111,      3114,
      3117,      3118,      3119,      3120,      3123,      3124,      3126,      3127,
      3130,      3131,      3144,      3146,      3147,      3153,      3154,      3155,
      3156,      3157,      3158,      3160,      3162,      3170,      3173,      3174,
      3176,      3183,      3184,      3185,      3186,      3187,      3195,      3198,
      3216,      3218,      3222,      3224,      3227,      3229,      3241,      3249,
      3261,      3268,      3271,      3298,      3310,      3312,      3324,      3325,
      3328,      3329,      3337,      3339,      3341,      3360,      3369,      3371,
** ... 290 like lines cut
*NSET, NSET=STRESS_NODES
       408,       409,       410,       411,       412,       413,       414,       415,
       416,       417,       418,       419,       420,       421,       422,       423,
       424,       425,       426,       427,       428,       429,       430,       431,
       432,       433,       434,       435,       436,       443,       444,       445,
       446,       447,       448,       449,       450,       451,       452,       453,
       454,       455,       456,       457,       458,       459,       460,       461,
       462,       463,       464,       465,       466,       467,       468,       469,
       470,       471,       472,       473,       474,       475,       476,       477,
       478,       479,       480,       481,       482,       483,       484,       485,
       486,       487,       488,       489,       490,       491,       492,       493,
       494,       495,       496,       497,       498,       499,       500,       501,
       502,       503,       504,       505,       506,       507,       508,       509,
       510,       511,       512,       513,       514,       515,       516,       517,
       518,       519,       520,       521,       522,       523,       524,       525,
       526,       527,       528,       529,       530,       531,       532,       533,
       534,       535,       536,       537,       538,       539,       540,       541,
       542,       543,       544,       545,       546,       547,       548,       549,
       550,       551,       552,       553,       554,       555,       556,       557,
       558,       559,       560,       561,       562,       563,       564,       565,
       566,       567,       568,       569,       570,       571,       572,       573,
** ... 67 like lines cut
*NSET, NSET=FIXATION_NODES
       944,       945,       946,       947,       948,       949,       950,       951,
       952,       953,       954,       955,       956,       957,       958,       959,
      1001,      1002,      1003,      1004,      1005,      1006,      1007,      1008,
      1009,      1010,      1011,      1012,      1013,      1015,      1017,      1021,
      1022,      1023,      1024,      1025,      1026,      1027,      1028,      1029,
      1030,      1031,      1032,      1033,      1034,      1123,      1124,      1125,
      1126,      1127,      1128,      1129,      1130,      1158,      1159,      1160,
      1161,      1164,      1165,      1168,      1169,      1170,      1171,      1172,
      1173,      1174,      1175,      1176,      1177,      1178,      1191,      1192,
      1193,      1194,      1196,      1197,      1198,      1201,      1202,      1203,
      1204,      1205,      1206,      1207,      1305,      1306,      1307,      1308,
      1309,      1310,      1311,      1312,      1313,      1314,      1315,      1316,
      1317,      1318,      1319,      1320,      1321,      1322,      1323,      1324,
      1325,      1326,      1327,      1328,      1329,      1330,      1331,      1332,
      1333,      1334,      1403,      1414,      1492,      1527,      1565,      1604,
      1611,      1685,      1686,      1687,      1714,      1720,      1736,      1739,
      1742,      1743,      1745,      1746,      1748,      1760,      1825,      1840,
      1841,      1851,      1852,      1861,      1862,      1868,      1873,      1905,
      1908,      1926,      1927,      1938,      1946,      1953,      1961,      1980,
      2009,      2048,      2067,      2074,      2079
*NSET, NSET=FIXATION_NODES_RED
       947,       948,       949,       950,       951,       952,       953,       954,
       955,       956,      1123,      1124,      1125,      1126,      1127,      1128,
      1129,      1130,      1305,      1306,      1307,      1308,      1309,      1310,
      1311,      1312,      1313,      1314,      1315,      1316,      1317,      1318,
      1319,      1320,      1321,      1322,      1323,      1324,      1325,      1326,
      1327,      1328,      1329,      1330,      1331,      1332,      1333,      1334
*NSET, NSET=LOAD_NODES
        26,        27,        28,        29,        30,        31,        32,        33,
        34,        35,        36,        37,        38,        39,        40,        41,
       155,       156,       157,       170,       171,       172,       173,       174,
       175,       176,       177,       180,       181,       198,       199,       200,
       202,       203,       204,       205,       206,       207,       208,       210,
       212,       213,       214,       224,       225,       226,       227,       228,
       229,       230,       231,       331,       332,       333,       338,       346,
       347,       348,       349,       350,       351,       352,       353,       354,
       356,       357,       374,       375,       376,       378,       379,       380,
       381,       382,       383,       384,       388,       389,       390,       899,
       900,       901,       902,       903,       904,       905,       906,       907,
       908,       909,       910,       911,       912,       913,       914,       915,
       916,       917,       918,       919,       920,       921,       922,       923,
       924,       925,       926,       927,       928,      1444,      1445,      1447,
      1461,      1478,      1484,      1487,      1502,      1503,      1504,      1509,
      1510,      1605,      1625,      1626,      1638,      1642,      1646,      1648,
      1651,      1652,      1706,      1772,      1776,      1812,      1820,      1821,
      1822,      1910,      1913,      1917,      1940,      1947,      1963,      2008,
      2044,      2065,      2089,      2103,      2115
*NSET, NSET=LOAD_NODES_RED
        29,        30,        31,        32,        33,        34,        35,        36,
        37,        38,       224,       225,       226,       227,       228,       229,
       230,       231,       899,       900,       901,       902,       903,       904,
       905,       906,       907,       908,       909,       910,       911,       912,
       913,       914,       915,       916,       917,       918,       919,       920,
       921,       922,       923,       924,       925,       926,       927,       928
*NSET, NSET=N_ALL
         1,         2,         3,         4,         5,         6,         7,         8,
         9,        10,        11,        12,        13,        14,        15,        16,
        17,        18,        19,        20,        21,        22,        23,        24,
        25,        26,        27,        28,        29,        30,        31,        32,
        33,        34,        35,        36,        37,        38,        39,        40,
        41,        42,        43,        44,        45,        46,        47,        48,
        49,        50,        51,        52,        53,        54,        55,        56,
        57,        58,        59,        60,        61,        62,        63,        64,
        65,        66,        67,        68,        69,        70,        71,        72,
        73,        74,        75,        76,        77,        78,        79,        80,
        81,        82,        83,        84,        85,        86,        87,        88,
        89,        90,        91,        92,        93,        94,        95,        96,
        97,        98,        99,       100,       101,       102,       103,       104,
       105,       106,       107,       108,       109,       110,       111,       112,
       113,       114,       115,       116,       117,       118,       119,       120,
       121,       122,       123,       124,       125,       126,       127,       128,
       129,       130,       131,       132,       133,       134,       135,       136,
       137,       138,       139,       140,       141,       142,       143,       144,
       145,       146,       147,       148,       149,       150,       151,       152,
       153,       154,       155,       156,       157,       158,       159,       160,
** ... 246 like lines cut
*****
*MATERIAL, NAME=Mat1
*ELASTIC
1.19039E+05,0.47,955.00
*EXPANSION, ZERO=20
1.65839E-05,955.00
*DENSITY
8200.0E-12
*CONDUCTIVITY
26.68, 955.0
*SPECIFIC HEAT
652.00E+06,955.0

*CREEP, LAW=USER
***CREEP,LAW=NORTON
**5.E-07,1.,0.,955.

****
*SOLID SECTION, MATERIAL=Mat1, ELSET=E_ALL
*INITIAL CONDITIONS,TYPE=TEMPERATURE
N_ALL,955.0

*STEP, INC=1000
*VISCO,CETOL=2.6E-04
**For USER CREEP MODEL
1.E-2,1.,1.E-06
**For NORTON MODEL
**1.E-2,1000.,1.E-06
*BOUNDARY, OP=NEW
FIXATION_NODES_RED,1,3
LOAD_NODES_RED,1,2
LOAD_NODES_RED,3,,0.18

*OUTPUT,FREQUENCY=1
*NODE OUTPUT, OUTPUTALL
U, NT
*ELEMENT OUTPUT, OUTPUTALL
S, PEEQ, SDV

***NODE PRINT,NSET=STRESS_NODES
**U
***EL PRINT,ELSET=STRESS_ELEMENTS
**S, SDV

*END STEP
