*NODE
1,-0.5498254520135,0.5340609634416,0.06666666666667
2,0.03489550989227,0.7992385772655,0
3,-0.6653225821236,-0.3971357321563,0.03333333333333
4,0.032714540524,0.7492861661864,0
5,-0.6653225821236,-0.3971357321563,0.04166666666667
6,0.03380502520814,0.7742623717259,0
7,0.7492861661864,-0.032714540524,0
8,0.06972459419813,0.7969557584734,0
9,0.75,5.126107871511E-16,0
10,0.06536680706074,0.7471460235688,0
11,0.7742623717259,-0.03380502520814,0
12,0.06754570062944,0.7720508910211,0
13,0.5066926557117,-0.5529580026076,0
14,0.104420953776,0.793155889099,0
15,0.7969557584734,-0.06972459419813,0
16,0.09789464416504,0.7435836460304,0
17,0.06754570062944,-0.7720508910211,0
18,0.1011577989705,0.7683697675647,0
19,0.7471460235688,-0.06536680706074,0
20,0.1389185421335,0.7878462024098,0
** ... 39292 like lines cut
*ELEMENT,TYPE=C3D8
1,1134,1148,1151,1138,1135,1149,244,1139
2,1190,1204,1207,1194,1191,1205,245,1195
3,1246,1260,1263,1250,1247,1261,246,1251
4,1302,1316,1319,1306,1303,1317,247,1307
5,1358,1372,1375,1362,1359,1373,268,1363
6,1414,1428,1431,1418,1415,1429,269,1419
7,1470,1484,1487,1474,1471,1485,270,1475
8,1526,1540,1543,1530,1527,1541,271,1531
9,1582,1596,1599,1586,1583,1597,1012,1587
10,1638,1652,1655,1642,1639,1653,1013,1643
11,1694,1708,1711,1698,1695,1709,1014,1699
12,1750,1764,1767,1754,1751,1765,1015,1755
13,1806,1820,1823,1810,1807,1821,236,1811
14,1862,1876,1879,1866,1863,1877,237,1867
15,1918,1932,1935,1922,1919,1933,238,1923
16,1974,1988,1991,1978,1975,1989,239,1979
17,2030,2044,2047,2034,2031,2045,916,2035
18,2086,2100,2103,2090,2087,2101,917,2091
19,2142,2156,2159,2146,2143,2157,918,2147
20,2198,2212,2215,2202,2199,2213,919,2203
** ... 31084 like lines cut
*NSET,NSET=nset-CL
231
247
251
259
263
283
287
307
331
335
343
355
359
379
383
391
403
427
431
439
** ... 124 like lines cut
*NSET,NSET=nset-fix-uz
143
144
177
388
389
390
391
520
521
522
523
524
525
526
527
1322
1771
1887
2017
2171
** ... 58 like lines cut
*NSET,NSET=nset-fix-uy
9
217
219
220
221
222
223
228
229
230
231
1060
1061
1062
1063
19756
19964
19966
19967
19968
** ... 10 like lines cut
*NSET,NSET=nset-fix-ux
49
113
177
388
389
390
391
644
645
646
647
900
901
902
903
19796
19860
19924
20135
20136
** ... 10 like lines cut
*NSET,NSET=nall
1
2
3
4
5
6
7
8
9
10
11
12
13
14
15
16
17
18
19
20
** ... 39292 like lines cut
*ELSET,ELSET=Default
1
2
3
4
5
6
7
8
9
10
11
12
13
14
15
16
17
18
19
20
** ... 31084 like lines cut
*MATERIAL,NAME=Material
*ELASTIC,TYPE=ISOTROPIC
165000000000,0.311
*BOUNDARY
143,1,,0
143,2,,0
143,3,,0
144,1,,0
144,2,,0
144,3,,0
177,1,,0
177,2,,0
177,3,,0
388,1,,0
388,2,,0
388,3,,0
389,1,,0
389,2,,0
389,3,,0
390,1,,0
390,2,,0
390,3,,0
391,1,,0
391,2,,0
** ... 214 like lines cut
*TRANSFORM,NSET=nall,TYPE=C
0.,0.,0.,0.,0.,1.
*ORIENTATION,NAME=OR1,SYSTEM=CYLINDRICAL
0.,0.,0.,0.,0.,1.
*SOLID SECTION,ELSET=Default,MATERIAL=Material,ORIENTATION=OR1
*STEP
*STATIC
*CLOAD
231,3,-562.03125
247,3,-562.03125
251,3,-562.03125
259,3,-562.03125
263,3,-562.03125
283,3,-562.03125
287,3,-562.03125
307,3,-562.03125
331,3,-562.03125
335,3,-562.03125
343,3,-562.03125
355,3,-562.03125
359,3,-562.03125
379,3,-562.03125
383,3,-562.03125
391,3,-562.03125
403,3,-562.03125
427,3,-562.03125
431,3,-562.03125
439,3,-562.03125
** ... 124 like lines cut
*NODE FILE,GLOBAL=NO
U
*EL FILE,GLOBAL=NO
S
*END STEP
