*MATERIAL, NAME=MAT
*ELASTIC, TYPE=ISOTROPIC
5e+09, 0.3
*DENSITY
1000
*NODE
      1,  0.100000001, 0.0500000007,           1.
      2,  0.100000001, -0.0500000007,           1.
      3,  0.100000001, 0.0500000007,         0.75
      4,  0.100000001, -0.0500000007,         0.75
      5,  0.100000001, 0.0500000007,          0.5
      6,  0.100000001, -0.0500000007,          0.5
      7,  0.100000001, 0.0500000007,         0.25
      8,  0.100000001, -0.0500000007,         0.25
      9,  0.100000001, 0.0500000007,           0.
     10,  0.100000001, -0.0500000007,           0.
     11,           0., 0.0500000007,           1.
     12,           0., -0.0500000007,           1.
     13,           0., 0.0500000007,         0.75
     14,           0., -0.0500000007,         0.75
     15,           0., 0.0500000007,          0.5
     16,           0., -0.0500000007,          0.5
     17,           0., 0.0500000007,         0.25
     18,           0., -0.0500000007,         0.25
     19,           0., 0.0500000007,           0.
     20,           0., -0.0500000007,           0.
** ... 69 like lines cut
*ELEMENT, TYPE=C3D20R,ELSET=STRUCT
1, 11, 12, 14, 13,  1,  2,  4,  3, 34, 33, 32, 31, 35, 36, 37,
   38, 40, 39, 41, 42
2, 13, 14, 16, 15,  3,  4,  6,  5, 32, 45, 44, 43, 37, 46, 47,
   48, 42, 41, 49, 50
3, 15, 16, 18, 17,  5,  6,  8,  7, 44, 53, 52, 51, 47, 54, 55,
   56, 50, 49, 57, 58
4, 17, 18, 20, 19,  7,  8, 10,  9, 52, 61, 60, 59, 55, 62, 63,
   64, 58, 57, 65, 66
5, 21, 22, 24, 23, 11, 12, 14, 13, 70, 69, 68, 67, 34, 33, 32,
   31, 72, 71, 73, 74
6, 23, 24, 26, 25, 13, 14, 16, 15, 68, 77, 76, 75, 32, 45, 44,
   43, 74, 73, 78, 79
7, 25, 26, 28, 27, 15, 16, 18, 17, 76, 82, 81, 80, 44, 53, 52,
   51, 79, 78, 83, 84
8, 27, 28, 30, 29, 17, 18, 20, 19, 81, 87, 86, 85, 52, 61, 60,
   59, 84, 83, 88, 89
*NSET, NSET=PIVOT
 9, 29
*NSET, NSET=TIP
 1
*SOLID SECTION,MATERIAL=MAT,ELSET=STRUCT
*STEP, INC=1000, NLGEOM
*DYNAMIC, DIRECT, ALPHA=-0.3
0.002, 2
**
**
*BOUNDARY
PIVOT, 1,3
*CLOAD
TIP, 3, 50

**
*NODE FILE
U
*EL FILE
S

**
*END STEP
