*HEADING
Model: LiftingBeamS8
**
** COORDINATES
**
*NODE, NSET=NALL
       1,  -90.000000    ,   1200.0000    ,  -76.000000
       2,   90.000000    ,   1200.0000    ,  -76.000000
       3,   90.000000    ,   1200.0000    ,  -91.000000
       4,   16.887596    ,   1200.0000    ,  -140.79534
       5,  -16.887596    ,   1200.0000    ,  -140.79534
       6,  -90.000000    ,   1200.0000    ,  -91.000000
       7,  0.69777517E-13,   1200.0000    ,  -126.00000
       8, -0.69777517E-13,   1200.0000    ,  -106.00000
       9,   10.000000    ,   1200.0000    ,  -116.00000
      10,  -10.000000    ,   1200.0000    ,  -116.00000
      11,  -90.000000    ,  -1200.0000    ,  -91.000000
      12,  -90.000000    ,  -1200.0000    ,  -76.000000
      13,   90.000000    ,  -1200.0000    ,  -76.000000
      14,   90.000000    ,  -1200.0000    ,  -91.000000
      15,   16.887596    ,  -1200.0000    ,  -140.79534
      16,  -16.887596    ,  -1200.0000    ,  -140.79534
      17,  0.69777517E-13,  -1200.0000    ,  -126.00000
      18, -0.69777517E-13,  -1200.0000    ,  -106.00000
      19,   10.000000    ,  -1200.0000    ,  -116.00000
      20,  -10.000000    ,  -1200.0000    ,  -116.00000
** ... 6425 like lines cut
**
** ELEMENT TOPOLOGY
**
*Shell Section, elset=S2   , material=M2
   16.00
*ELEMENT, TYPE=S8 ,ELSET=S2
       1,       2,      81,    1597,     374,      80,    1617,    1618,     373
       2,    1597,      81,       3,      84,    1617,      82,      83,    1619
       3,       1,     332,    1598,     101,     333,    1620,    1621,     102
       4,      98,       6,     101,    1598,      99,     100,    1621,    1622
       5,     332,     330,    1599,    1598,     331,    1623,    1624,    1620
       6,      96,      98,    1598,    1599,      97,    1622,    1624,    1625
       7,     330,     328,    1600,    1599,     329,    1626,    1627,    1623
       8,      94,      96,    1599,    1600,      95,    1625,    1627,    1628
       9,     328,      46,    1601,    1600,     327,    1629,    1630,    1626
      10,      46,    1565,    1602,    1601,    1566,    1631,    1632,    1629
      11,    1565,      66,    1603,    1602,    1564,    1633,    1634,    1631
      12,      66,    1571,    1604,    1603,    1570,    1635,    1636,    1633
      13,    1571,      50,    1605,    1604,    1572,    1637,    1638,    1635
      14,      50,     378,    1606,    1605,     379,    1639,    1640,    1637
      15,     378,     376,    1607,    1606,     377,    1641,    1642,    1639
      16,    1607,     376,     374,    1597,    1641,     375,    1618,    1643
      17,    1607,    1597,      84,      86,    1643,    1619,      85,    1644
      18,    1606,    1607,      86,      88,    1642,    1644,      87,    1645
      19,    1605,    1606,      88,    1608,    1640,    1645,    1646,    1647
      20,       5,      94,     113,       7,      93,    1648,     114,    1649
** ... 17 like lines cut
*Shell Section, elset=S1   , material=M1
   20.00
*ELEMENT, TYPE=S8 ,ELSET=S1
      38,      22,     151,    1674,    1538,     150,    1704,    1705,    1539
      39,      25,     168,    1675,     165,     167,    1706,    1707,     166
      40,     162,      24,     165,    1675,     163,     164,    1707,    1708
      41,      21,     852,    1676,     180,     853,    1709,    1710,     181
      42,     151,     153,    1677,    1674,     152,    1711,    1712,    1704
      43,      62,    1538,    1674,    1677,    1537,    1705,    1712,    1713
      44,     153,     155,    1678,    1677,     154,    1714,    1715,    1711
      45,     155,     157,    1679,    1678,     156,    1716,    1717,    1714
      46,     157,     159,    1680,    1679,     158,    1718,    1719,    1716
      47,     159,      23,    1681,    1680,     160,    1720,    1721,    1718
      48,     168,     170,    1682,    1675,     169,    1722,    1723,    1706
      49,     170,     172,    1683,    1682,     171,    1724,    1725,    1722
      50,     172,     174,    1684,    1683,     173,    1726,    1727,    1724
      51,     174,     176,    1685,    1684,     175,    1728,    1729,    1726
      52,     176,     178,    1686,    1685,     177,    1730,    1731,    1728
      53,    1686,     178,     180,    1676,    1730,     179,    1710,    1732
      54,     852,     850,    1687,    1676,     851,    1733,    1734,    1709
      55,     850,     848,    1688,    1687,     849,    1735,    1736,    1733
      56,     848,     846,    1689,    1688,     847,    1737,    1738,    1735
      57,     846,     844,    1690,    1689,     845,    1739,    1740,    1737
** ... 205 like lines cut
*Shell Section, elset=S5   , material=M5
   8.000
*ELEMENT, TYPE=S8 ,ELSET=S5
     263,       1,     335,    2211,     332,     334,    2227,    2228,     333
     264,      47,     350,    2212,     347,     349,    2229,    2230,     348
     265,     335,     337,    2213,    2211,     336,    2231,    2232,    2227
     266,     337,     339,    2214,    2213,     338,    2233,    2234,    2231
     267,     339,     341,    2215,    2214,     340,    2235,    2236,    2233
     268,     341,     343,    2216,    2215,     342,    2237,    2238,    2235
     269,     343,     345,    2217,    2216,     344,    2239,    2240,    2237
     270,    2217,     345,     347,    2212,    2239,     346,    2230,    2241
     271,     350,      43,    2218,    2212,     351,    2242,    2243,    2229
     272,      78,    1589,    2220,    2219,    1588,    2244,    2245,    2246
     273,    2220,    1589,      45,     325,    2244,    1590,     324,    2247
     274,     325,      46,    2221,    2220,     326,    2248,    2249,    2247
     275,      46,     328,    2222,    2221,     327,    2250,    2251,    2248
     276,     328,     330,    2213,    2222,     329,    2252,    2253,    2250
     277,     330,     332,    2211,    2213,     331,    2228,    2232,    2252
     278,    1586,      78,    2219,    2223,    1587,    2246,    2254,    2255
     279,     322,      44,    1586,    2223,     323,    1585,    2255,    2256
     280,    2213,    2214,    2224,    2222,    2234,    2257,    2258,    2253
     281,    2220,    2221,    2222,    2224,    2249,    2251,    2258,    2259
     282,    2214,    2215,    2225,    2224,    2236,    2260,    2261,    2257
** ... 32 like lines cut
*Shell Section, elset=S3   , material=M3
   9.500
*ELEMENT, TYPE=S8 ,ELSET=S3
     315,      49,     391,    2325,     356,     390,    2330,    2331,     357
     316,      53,     398,    2326,     395,     397,    2332,    2333,     396
     317,    2326,     398,      51,     384,    2332,     399,     383,    2334
     318,      52,    1544,    2327,     388,    1543,    2335,    2336,     389
     319,     391,     393,    2328,    2325,     392,    2337,    2338,    2330
     320,    2328,     393,     395,    2326,    2337,     394,    2333,    2339
     321,    2328,    2326,     384,     386,    2339,    2334,     385,    2340
     322,     386,     388,    2327,    2328,     387,    2336,    2341,    2340
     323,    2327,    1544,      48,    2329,    2335,    1545,    2342,    2343
     324,      48,     356,    2325,    2329,     355,    2331,    2344,    2342
     325,    2325,    2328,    2327,    2329,    2338,    2341,    2343,    2344
     326,      56,     408,    2345,    1547,     407,    2350,    2351,    1548
     327,      57,     415,    2346,     412,     414,    2352,    2353,     413
     328,    2346,     415,      54,     401,    2352,     416,     400,    2354
     329,      55,    1501,    2347,     405,    1500,    2355,    2356,     406
     330,     408,     410,    2348,    2345,     409,    2357,    2358,    2350
     331,     410,     412,    2346,    2348,     411,    2353,    2359,    2357
     332,    2348,    2346,     401,     403,    2359,    2354,     402,    2360
     333,     403,     405,    2347,    2348,     404,    2356,    2361,    2360
     334,    2347,    1501,      73,    2349,    2355,    1502,    2362,    2363
** ... 579 like lines cut
*Shell Section, elset=S4   , material=M4
   6.000
*ELEMENT, TYPE=S8 ,ELSET=S4
     914,      63,     934,    3714,    1556,     933,    3728,    3729,    1557
     915,      64,     941,    3715,     938,     940,    3730,    3731,     939
     916,      57,     412,    3716,     945,     413,    3732,    3733,     946
     917,      56,    1574,    3717,     408,    1573,    3734,    3735,     407
     918,     934,     936,    3718,    3714,     935,    3736,    3737,    3728
     919,    3718,     936,     938,    3715,    3736,     937,    3731,    3738
     920,     941,     943,    3719,    3715,     942,    3739,    3740,    3730
     921,    3719,     943,     945,    3716,    3739,     944,    3733,    3741
     922,     412,     410,    3720,    3716,     411,    3742,    3743,    3732
     923,    3720,     410,     408,    3717,    3742,     409,    3735,    3744
     924,    1574,      74,    3721,    3717,    1575,    3745,    3746,    3734
     925,      74,    1592,    3722,    3721,    1591,    3747,    3748,    3745
     926,    1592,      79,    3723,    3722,    1593,    3749,    3750,    3747
     927,      79,    1595,    3724,    3723,    1594,    3751,    3752,    3749
     928,    1595,      71,    3725,    3724,    1596,    3753,    3754,    3751
     929,    3725,      71,    1556,    3714,    3753,    1555,    3729,    3755
     930,    3714,    3718,    3726,    3725,    3737,    3756,    3757,    3755
     931,    3718,    3715,    3727,    3726,    3738,    3758,    3759,    3756
     932,    3724,    3725,    3726,    3727,    3754,    3757,    3759,    3760
     933,    3715,    3719,    3722,    3727,    3740,    3761,    3762,    3758
** ... 484 like lines cut
*Shell Section, elset=S3   , material=M3
   9.500
*ELEMENT, TYPE=S8 ,ELSET=S3
    1418,      63,     934,    4998,    1562,     933,    5009,    5010,    1563
    1419,      64,    1127,    4999,     938,    1126,    5011,    5012,     939
    1420,     934,     936,    5001,    4998,     935,    5013,    5014,    5009
    1421,     936,     938,    4999,    5001,     937,    5012,    5015,    5013
    1422,    4998,    5001,    4999,    5002,    5014,    5015,    5016,    5017
    1423,    1124,      12,    1525,    5003,    1125,    1524,    5018,    5019
    1424,    1525,    1527,    5004,    5003,    1526,    5020,    5021,    5018
    1425,    1527,    1529,    5000,    5004,    1528,    5022,    5023,    5020
    1426,    4998,    5002,    5000,    5005,    5017,    5024,    5025,    5026
    1427,    5000,    1529,      76,    5005,    5022,    1530,    5027,    5025
    1428,      76,    1562,    4998,    5005,    1561,    5010,    5026,    5027
    1429,    1122,    1124,    5003,    5006,    1123,    5019,    5028,    5029
    1430,    5003,    5004,    5000,    5006,    5021,    5023,    5030,    5028
    1431,    1120,    1122,    5006,    5007,    1121,    5029,    5031,    5032
    1432,    5006,    5000,    5002,    5007,    5030,    5024,    5033,    5031
    1433,      67,    1120,    5007,    5008,    1119,    5032,    5034,    5035
    1434,    5007,    5002,    4999,    5008,    5033,    5016,    5036,    5034
    1435,    4999,    1127,      67,    5008,    5011,    1128,    5035,    5036
    1436,       1,    1130,    5037,     332,    1129,    5044,    5045,     333
    1437,      68,    1137,    5038,    1134,    1136,    5046,    5047,    1135
** ... 536 like lines cut
*Shell Section, elset=S5   , material=M5
   8.000
*ELEMENT, TYPE=S8 ,ELSET=S5
    1974,      55,    1498,    6258,    1501,    1499,    6274,    6275,    1500
    1975,      13,    1483,    6259,    1486,    1484,    6276,    6277,    1485
    1976,    1498,    1496,    6260,    6258,    1497,    6278,    6279,    6274
    1977,    1496,    1494,    6261,    6260,    1495,    6280,    6281,    6278
    1978,    1494,    1492,    6262,    6261,    1493,    6282,    6283,    6280
    1979,    1492,    1490,    6263,    6262,    1491,    6284,    6285,    6282
    1980,    1490,    1488,    6264,    6263,    1489,    6286,    6287,    6284
    1981,    6264,    1488,    1486,    6259,    6286,    1487,    6277,    6288
    1982,    1483,    1481,    6265,    6259,    1482,    6289,    6290,    6276
    1983,    1481,    1479,    6266,    6265,    1480,    6291,    6292,    6289
    1984,    6266,    1479,      72,    1476,    6291,    1478,    1477,    6293
    1985,    6266,    1476,      71,    1595,    6293,    1475,    1596,    6294
    1986,    1595,      79,    6268,    6267,    1594,    6295,    6296,    6297
    1987,      79,    1592,    6269,    6268,    1593,    6298,    6299,    6295
    1988,    6269,    1592,      74,    1504,    6298,    1591,    1505,    6300
    1989,    1504,      73,    6270,    6269,    1503,    6301,    6302,    6300
    1990,    6270,      73,    1501,    6258,    6301,    1502,    6275,    6303
    1991,    6258,    6260,    6271,    6270,    6279,    6304,    6305,    6303
    1992,    6268,    6269,    6270,    6271,    6299,    6302,    6305,    6306
    1993,    6268,    6271,    6260,    6261,    6306,    6304,    6281,    6307
** ... 32 like lines cut
*Shell Section, elset=S2   , material=M2
   16.00
*ELEMENT, TYPE=S8 ,ELSET=S2
    2026,      13,     119,    6372,    1483,     118,    6391,    6392,    1484
    2027,    6372,     119,      14,     122,    6391,     120,     121,    6393
    2028,      12,    1525,    6373,     116,    1524,    6394,    6395,     117
    2029,     136,      11,     116,    6373,     137,     115,    6395,    6396
    2030,    1525,    1527,    6374,    6373,    1526,    6397,    6398,    6394
    2031,     134,     136,    6373,    6374,     135,    6396,    6398,    6399
    2032,    1527,    1529,    6375,    6374,    1528,    6400,    6401,    6397
    2033,     132,     134,    6374,    6375,     133,    6399,    6401,    6402
    2034,    1529,      76,    6376,    6375,    1530,    6403,    6404,    6400
    2035,      76,    1562,    6377,    6376,    1561,    6405,    6406,    6403
    2036,    1562,      63,    6378,    6377,    1563,    6407,    6408,    6405
    2037,      63,    1568,    6379,    6378,    1569,    6409,    6410,    6407
    2038,    1568,      72,    6380,    6379,    1567,    6411,    6412,    6409
    2039,      72,    1479,    6381,    6380,    1478,    6413,    6414,    6411
    2040,    1479,    1481,    6382,    6381,    1480,    6415,    6416,    6413
    2041,    6382,    1481,    1483,    6372,    6415,    1482,    6392,    6417
    2042,    6382,    6372,     122,     124,    6417,    6393,     123,    6418
    2043,    6381,    6382,     124,     126,    6416,    6418,     125,    6419
    2044,    6380,    6381,     126,    6383,    6414,    6419,    6420,    6421
    2045,      16,     132,     148,      17,     131,    6422,     149,    6423
** ... 16 like lines cut
**
** MATERIAL PROPERTIES
**
**
**
**  Steel
**
**
** M1
*MATERIAL, NAME=M1
*ELASTIC, TYPE=ISOTROPIC
    210000.    ,  0.30000
*DENSITY
   0.785000E-08,
*EXPANSION, TYPE=ISO
   0.120000E-04,
**
**
**  Steel
**
**
** M3
*MATERIAL, NAME=M2
*ELASTIC, TYPE=ISOTROPIC
    210000.    ,  0.30000
*DENSITY
   0.785000E-08,
*EXPANSION, TYPE=ISO
   0.120000E-04,
**
**
**  Steel
**
**
** M5
*MATERIAL, NAME=M3
*ELASTIC, TYPE=ISOTROPIC
    210000.    ,  0.30000
*DENSITY
   0.785000E-08,
*EXPANSION, TYPE=ISO
   0.120000E-04,
**
**
**  Steel
**
**
** M7
*MATERIAL, NAME=M4
*ELASTIC, TYPE=ISOTROPIC
    210000.    ,  0.30000
*DENSITY
   0.785000E-08,
*EXPANSION, TYPE=ISO
   0.120000E-04,
**
**
**  Steel
**
**
** M10
*MATERIAL, NAME=M5
*ELASTIC, TYPE=ISOTROPIC
    210000.    ,  0.30000
*DENSITY
   0.785000E-08,
*EXPANSION, TYPE=ISO
   0.120000E-04,
**
** EARTH SPRINGS
**
**
** FIXED FREEDOMS
**
*BOUNDARY
      77, 1, 2
      78, 1
      78, 3
      79, 1
      79, 3
*Step
*BUCKLE
    5,
**
** LOADS
**
**
**
**  Load  Case
**     1   1 Point P0H2 Trans GLOB   F1=0.0 F2=0.0 F3=33334.
**
*Cload,OP=NEW
     77,3,   33334.000
**
**
**  Load  Case
**     2   1 Point P022 Trans GLOB   F1=0.0 F2=0.0 F3=33333.
**
     36,3,   33333.000
**
**
**  Load  Case
**     3   1 Point P01W Trans GLOB   F1=0.0 F2=0.0 F3=33333.
**
     35,3,   33333.000
**
**
**  Load  Case
**     4   1 Point P83  Trans GLOB   F1=0.0 F2=0.0 F3=-12500.
**
     19,3,  -12500.000
**
**
**  Load  Case
**     5   1 Point P82  Trans GLOB   F1=0.0 F2=0.0 F3=-12500.
**
     18,3,  -12500.000
**
**
**  Load  Case
**     6   1 Point P81  Trans GLOB   F1=0.0 F2=0.0 F3=-12500.
**
     17,3,  -12500.000
**
**
**  Load  Case
**     7   1 Point P90  Trans GLOB   F1=0.0 F2=0.0 F3=-12500.
**
     20,3,  -12500.000
**
**
**  Load  Case
**     8   1 Point P37  Trans GLOB   F1=0.0 F2=0.0 F3=-12500.
**
      8,3,  -12500.000
**
**
**  Load  Case
**     9   1 Point P38  Trans GLOB   F1=0.0 F2=0.0 F3=-12500.
**
      9,3,  -12500.000
**
**
**  Load  Case
**    10   1 Point P36  Trans GLOB   F1=0.0 F2=0.0 F3=-12500.
**
      7,3,  -12500.000
**
**
**  Load  Case
**    11   1 Point P45  Trans GLOB   F1=0.0 F2=0.0 F3=-12500.
**
     10,3,  -12500.000
** OUTPUT REQUESTS
**
*EL PRINT, ELSET=S2
S
*EL PRINT, ELSET=S1
S
*EL PRINT, ELSET=S5
S
*EL PRINT, ELSET=S3
S
*EL PRINT, ELSET=S4
S
*NODE FILE
U, RF
*EL FILE
S
*End Step
