**
** Version, 5.6 
** PCB for Windows by KCR Products
** Blank lines and lines beginning with '**' are ignored
**   cgx -c Sample_FEA.inp   or cgx Sample_FEA.frd
**   ccx Sample_FEA
*HEADING
Model: Sample_FEA.inp    Date: 4/9/2012 
*NODE, NSET=N_GEN
 1 , 4.5 , 3 , 0.2965 
 2 , 0 , 0 ,-0.5 
 3 , 9 , 0 ,-0.5 
 4 , 0 , 6 ,-0.5 
 5 , 9 , 6 ,-0.5 
 6 , 2.7 , 1.39472 , 0.0465 
 7 , 2.7 , 1.34216 , 0.1315 
 8 , 2.7 , 1.25456 , 0.1315 
 9 , 2.7 , 1.03556 , 0.1315 
 10 , 2.7 , 0.81656 , 0.1315 
 11 , 2.700001 , 0.72896 , 0.1315 
 12 , 2.700001 , 0.6764001 , 0.0465 
 13 , 3.099999 , 1.39472 , 0.0465 
 14 , 3.099999 , 1.34216 , 0.1315 
 15 , 3.1 , 1.25456 , 0.1315 
 16 , 3.1 , 1.03556 , 0.1315 
 17 , 3.1 , 0.81656 , 0.1315 
 18 , 3.1 , 0.72896 , 0.1315 
 19 , 3.1 , 0.6764001 , 0.0465 
 20 , 3.4 , 1.37262 , 0.0465 
** ... 1499 like lines cut
*ELEMENT, TYPE=C3D8,ELSET= _A-PCB
 1,  79,  109,  111,  81,  80,  110,  112,  82
 2,  109,  139,  141,  111,  110,  140,  142,  112
 3,  139,  169,  171,  141,  140,  170,  172,  142
 4,  169,  199,  201,  171,  170,  200,  202,  172
 5,  199,  229,  231,  201,  200,  230,  232,  202
 6,  229,  259,  261,  231,  230,  260,  262,  232
 7,  259,  289,  291,  261,  260,  290,  292,  262
 8,  289,  319,  321,  291,  290,  320,  322,  292
 9,  319,  349,  351,  321,  320,  350,  352,  322
 10,  349,  379,  381,  351,  350,  380,  382,  352
 11,  379,  409,  411,  381,  380,  410,  412,  382
 12,  409,  439,  441,  411,  410,  440,  442,  412
 13,  439,  469,  471,  441,  440,  470,  472,  442
 14,  469,  499,  501,  471,  470,  500,  502,  472
 15,  499,  529,  531,  501,  500,  530,  532,  502
 16,  529,  559,  561,  531,  530,  560,  562,  532
 17,  559,  589,  591,  561,  560,  590,  592,  562
 18,  589,  619,  621,  591,  590,  620,  622,  592
 19,  619,  649,  651,  621,  620,  650,  652,  622
 20,  649,  679,  681,  651,  650,  680,  682,  652
** ... 316 like lines cut
*SOLID SECTION,ELSET=_A-PCB,MATERIAL=G10
*ELSET, ELSET= E_ALL
_A-PCB
*ELEMENT, TYPE=B32,ELSET=_A-MT1
 337,   67,   68,   69
*BEAM SECTION, ELSET=_A-MT1,MATERIAL=St_Stl_304, SECTION = CIRC
 0.375 ,  0.375 
 1, 0, 0
*ELSET, ELSET= E_ALL
_A-MT1
*ELEMENT, TYPE=B32,ELSET=_A-MT2
 338,   70,   71,   72
*BEAM SECTION, ELSET=_A-MT2,MATERIAL=St_Stl_304, SECTION = CIRC
 0.375 ,  0.375 
 1, 0, 0
*ELSET, ELSET= E_ALL
_A-MT2
*ELEMENT, TYPE=B32,ELSET=_A-MT3
 339,   73,   74,   75
*BEAM SECTION, ELSET=_A-MT3,MATERIAL=St_Stl_304, SECTION = CIRC
 0.375 ,  0.375 
 1, 0, 0
*ELSET, ELSET= E_ALL
_A-MT3
*ELEMENT, TYPE=B32,ELSET=_A-MT4
 340,   76,   77,   78
*BEAM SECTION, ELSET=_A-MT4,MATERIAL=St_Stl_304, SECTION = CIRC
 0.375 ,  0.375 
 1, 0, 0
*ELSET, ELSET= E_ALL
_A-MT4
*ELEMENT, TYPE=S6,ELSET= _A-EM1
 341,  50,  52,  58,  51,  55,  54
 342,  50,  58,  56,  54,  57,  53
 343,  50,  36,  34,  43,  35,  42
 344,  50,  52,  36,  51,  44,  43
 345,  56,  41,  39,  48,  40,  47
 346,  56,  58,  41,  57,  49,  48
 347,  34,  39,  56,  37,  47,  45
 348,  50,  34,  56,  42,  45,  53
 349,  36,  41,  58,  38,  49,  46
 350,  52,  36,  58,  44,  46,  55
*SHELL SECTION,ELSET=_A-EM1,MATERIAL=Copper
 0.05 
*ELSET, ELSET= E_ALL
_A-EM1
*ELEMENT, TYPE=S6,ELSET= _A-U10L
 351,  928,  930,  936,  929,  933,  932
 352,  928,  936,  934,  932,  935,  931
*ELEMENT, TYPE=S6,ELSET= _A-U10
 353,  934,  936,  942,  935,  939,  938
 354,  934,  942,  940,  938,  941,  937
*ELEMENT, TYPE=S6,ELSET= _A-U10L
 355,  940,  942,  948,  941,  945,  944
 356,  940,  948,  946,  944,  947,  943
*SHELL SECTION,ELSET=_A-U10,MATERIAL=Epoxy
 0.15 
*SHELL SECTION,ELSET=_A-U10L,MATERIAL=COPPER
 0.01 
*ELSET, ELSET= E_ALL
_A-U10
_A-U10L
*ELEMENT, TYPE=S6,ELSET= _A-U11L
 357,  949,  951,  957,  950,  954,  953
 358,  949,  957,  955,  953,  956,  952
*ELEMENT, TYPE=S6,ELSET= _A-U11
 359,  955,  957,  963,  956,  960,  959
 360,  955,  963,  961,  959,  962,  958
*ELEMENT, TYPE=S6,ELSET= _A-U11L
 361,  961,  963,  969,  962,  966,  965
 362,  961,  969,  967,  965,  968,  964
*SHELL SECTION,ELSET=_A-U11,MATERIAL=Epoxy
 0.15 
*SHELL SECTION,ELSET=_A-U11L,MATERIAL=COPPER
 0.01 
*ELSET, ELSET= E_ALL
_A-U11
_A-U11L
*ELEMENT, TYPE=S6,ELSET= _A-U12L
 363,  970,  972,  978,  971,  975,  974
 364,  970,  978,  976,  974,  977,  973
*ELEMENT, TYPE=S6,ELSET= _A-U12
 365,  976,  978,  984,  977,  981,  980
 366,  976,  984,  982,  980,  983,  979
*ELEMENT, TYPE=S6,ELSET= _A-U12L
 367,  982,  984,  990,  983,  987,  986
 368,  982,  990,  988,  986,  989,  985
*SHELL SECTION,ELSET=_A-U12,MATERIAL=Epoxy
 0.15 
*SHELL SECTION,ELSET=_A-U12L,MATERIAL=COPPER
 0.01 
*ELSET, ELSET= E_ALL
_A-U12
_A-U12L
*ELEMENT, TYPE=S6,ELSET= _A-U13L
 369,  991,  993,  999,  992,  996,  995
 370,  991,  999,  997,  995,  998,  994
*ELEMENT, TYPE=S6,ELSET= _A-U13
 371,  997,  999,  1005,  998,  1002,  1001
 372,  997,  1005,  1003,  1001,  1004,  1000
*ELEMENT, TYPE=S6,ELSET= _A-U13L
 373,  1003,  1005,  1011,  1004,  1008,  1007
 374,  1003,  1011,  1009,  1007,  1010,  1006
*SHELL SECTION,ELSET=_A-U13,MATERIAL=Epoxy
 0.15 
*SHELL SECTION,ELSET=_A-U13L,MATERIAL=COPPER
 0.01 
*ELSET, ELSET= E_ALL
_A-U13
_A-U13L
*ELEMENT, TYPE=S6,ELSET= _A-U14L
 375,  1012,  1014,  1020,  1013,  1017,  1016
 376,  1012,  1020,  1018,  1016,  1019,  1015
*ELEMENT, TYPE=S6,ELSET= _A-U14
 377,  1018,  1020,  1026,  1019,  1023,  1022
 378,  1018,  1026,  1024,  1022,  1025,  1021
*ELEMENT, TYPE=S6,ELSET= _A-U14L
 379,  1024,  1026,  1032,  1025,  1029,  1028
 380,  1024,  1032,  1030,  1028,  1031,  1027
*SHELL SECTION,ELSET=_A-U14,MATERIAL=Epoxy
 0.15 
*SHELL SECTION,ELSET=_A-U14L,MATERIAL=COPPER
 0.01 
*ELSET, ELSET= E_ALL
_A-U14
_A-U14L
*ELEMENT, TYPE=S6,ELSET= _A-U15L
 381,  1033,  1035,  1041,  1034,  1038,  1037
 382,  1033,  1041,  1039,  1037,  1040,  1036
*ELEMENT, TYPE=S6,ELSET= _A-U15
 383,  1039,  1041,  1047,  1040,  1044,  1043
 384,  1039,  1047,  1045,  1043,  1046,  1042
*ELEMENT, TYPE=S6,ELSET= _A-U15L
 385,  1045,  1047,  1053,  1046,  1050,  1049
 386,  1045,  1053,  1051,  1049,  1052,  1048
*SHELL SECTION,ELSET=_A-U15,MATERIAL=Epoxy
 0.15 
*SHELL SECTION,ELSET=_A-U15L,MATERIAL=COPPER
 0.01 
*ELSET, ELSET= E_ALL
_A-U15
_A-U15L
*ELEMENT, TYPE=S6,ELSET= _A-U16L
 387,  1054,  1056,  1062,  1055,  1059,  1058
 388,  1054,  1062,  1060,  1058,  1061,  1057
*ELEMENT, TYPE=S6,ELSET= _A-U16
 389,  1060,  1062,  1068,  1061,  1065,  1064
 390,  1060,  1068,  1066,  1064,  1067,  1063
*ELEMENT, TYPE=S6,ELSET= _A-U16L
 391,  1066,  1068,  1074,  1067,  1071,  1070
 392,  1066,  1074,  1072,  1070,  1073,  1069
*SHELL SECTION,ELSET=_A-U16,MATERIAL=Epoxy
 0.15 
*SHELL SECTION,ELSET=_A-U16L,MATERIAL=COPPER
 0.01 
*ELSET, ELSET= E_ALL
_A-U16
_A-U16L
*ELEMENT, TYPE=S6,ELSET= _A-U17L
 393,  1075,  1077,  1083,  1076,  1080,  1079
 394,  1075,  1083,  1081,  1079,  1082,  1078
*ELEMENT, TYPE=S6,ELSET= _A-U17
 395,  1081,  1083,  1089,  1082,  1086,  1085
 396,  1081,  1089,  1087,  1085,  1088,  1084
*ELEMENT, TYPE=S6,ELSET= _A-U17L
 397,  1087,  1089,  1095,  1088,  1092,  1091
 398,  1087,  1095,  1093,  1091,  1094,  1090
*SHELL SECTION,ELSET=_A-U17,MATERIAL=Epoxy
 0.15 
*SHELL SECTION,ELSET=_A-U17L,MATERIAL=COPPER
 0.01 
*ELSET, ELSET= E_ALL
_A-U17
_A-U17L
*ELEMENT, TYPE=S6,ELSET= _A-U4L
 399,  1394,  1396,  1402,  1395,  1399,  1398
 400,  1394,  1402,  1400,  1398,  1401,  1397
*ELEMENT, TYPE=S6,ELSET= _A-U4
 401,  1400,  1402,  1408,  1401,  1405,  1404
 402,  1400,  1408,  1406,  1404,  1407,  1403
*ELEMENT, TYPE=S6,ELSET= _A-U4L
 403,  1406,  1408,  1414,  1407,  1411,  1410
 404,  1406,  1414,  1412,  1410,  1413,  1409
*SHELL SECTION,ELSET=_A-U4,MATERIAL=Epoxy
 0.15 
*SHELL SECTION,ELSET=_A-U4L,MATERIAL=COPPER
 0.01 
*ELSET, ELSET= E_ALL
_A-U4
_A-U4L
*ELEMENT, TYPE=S6,ELSET= _A-U5L
 405,  1415,  1417,  1423,  1416,  1420,  1419
 406,  1415,  1423,  1421,  1419,  1422,  1418
*ELEMENT, TYPE=S6,ELSET= _A-U5
 407,  1421,  1423,  1429,  1422,  1426,  1425
 408,  1421,  1429,  1427,  1425,  1428,  1424
*ELEMENT, TYPE=S6,ELSET= _A-U5L
 409,  1427,  1429,  1435,  1428,  1432,  1431
 410,  1427,  1435,  1433,  1431,  1434,  1430
*SHELL SECTION,ELSET=_A-U5,MATERIAL=Epoxy
 0.15 
*SHELL SECTION,ELSET=_A-U5L,MATERIAL=COPPER
 0.01 
*ELSET, ELSET= E_ALL
_A-U5
_A-U5L
*ELEMENT, TYPE=S6,ELSET= _A-U6L
 411,  1436,  1438,  1444,  1437,  1441,  1440
 412,  1436,  1444,  1442,  1440,  1443,  1439
*ELEMENT, TYPE=S6,ELSET= _A-U6
 413,  1442,  1444,  1450,  1443,  1447,  1446
 414,  1442,  1450,  1448,  1446,  1449,  1445
*ELEMENT, TYPE=S6,ELSET= _A-U6L
 415,  1448,  1450,  1456,  1449,  1453,  1452
 416,  1448,  1456,  1454,  1452,  1455,  1451
*SHELL SECTION,ELSET=_A-U6,MATERIAL=Epoxy
 0.15 
*SHELL SECTION,ELSET=_A-U6L,MATERIAL=COPPER
 0.01 
*ELSET, ELSET= E_ALL
_A-U6
_A-U6L
*ELEMENT, TYPE=S6,ELSET= _A-U7L
 417,  1457,  1459,  1465,  1458,  1462,  1461
 418,  1457,  1465,  1463,  1461,  1464,  1460
*ELEMENT, TYPE=S6,ELSET= _A-U7
 419,  1463,  1465,  1471,  1464,  1468,  1467
 420,  1463,  1471,  1469,  1467,  1470,  1466
*ELEMENT, TYPE=S6,ELSET= _A-U7L
 421,  1469,  1471,  1477,  1470,  1474,  1473
 422,  1469,  1477,  1475,  1473,  1476,  1472
*SHELL SECTION,ELSET=_A-U7,MATERIAL=Epoxy
 0.15 
*SHELL SECTION,ELSET=_A-U7L,MATERIAL=COPPER
 0.01 
*ELSET, ELSET= E_ALL
_A-U7
_A-U7L
*ELEMENT, TYPE=S6,ELSET= _A-U8L
 423,  1478,  1480,  1486,  1479,  1483,  1482
 424,  1478,  1486,  1484,  1482,  1485,  1481
*ELEMENT, TYPE=S6,ELSET= _A-U8
 425,  1484,  1486,  1492,  1485,  1489,  1488
 426,  1484,  1492,  1490,  1488,  1491,  1487
*ELEMENT, TYPE=S6,ELSET= _A-U8L
 427,  1490,  1492,  1498,  1491,  1495,  1494
 428,  1490,  1498,  1496,  1494,  1497,  1493
*SHELL SECTION,ELSET=_A-U8,MATERIAL=Epoxy
 0.15 
*SHELL SECTION,ELSET=_A-U8L,MATERIAL=COPPER
 0.01 
*ELSET, ELSET= E_ALL
_A-U8
_A-U8L
*ELEMENT, TYPE=S6,ELSET= _A-U9L
 429,  1499,  1501,  1507,  1500,  1504,  1503
 430,  1499,  1507,  1505,  1503,  1506,  1502
*ELEMENT, TYPE=S6,ELSET= _A-U9
 431,  1505,  1507,  1513,  1506,  1510,  1509
 432,  1505,  1513,  1511,  1509,  1512,  1508
*ELEMENT, TYPE=S6,ELSET= _A-U9L
 433,  1511,  1513,  1519,  1512,  1516,  1515
 434,  1511,  1519,  1517,  1515,  1518,  1514
*SHELL SECTION,ELSET=_A-U9,MATERIAL=Epoxy
 0.15 
*SHELL SECTION,ELSET=_A-U9L,MATERIAL=COPPER
 0.01 
*ELSET, ELSET= E_ALL
_A-U9
_A-U9L
*ELEMENT, TYPE=C3D8,ELSET= _A-HYB1
 435,  59,  60,  62,  61,  63,  64,  66,  65
*SOLID SECTION,ELSET=_A-HYB1,MATERIAL=Epoxy
*ELSET, ELSET= E_ALL
_A-HYB1
*ELEMENT, TYPE=S6,ELSET= _A-U18L
 436,  1096,  1098,  1104,  1097,  1101,  1100
 437,  1096,  1104,  1102,  1100,  1103,  1099
*ELEMENT, TYPE=S6,ELSET= _A-U18
 438,  1102,  1104,  1110,  1103,  1107,  1106
 439,  1102,  1110,  1108,  1106,  1109,  1105
*ELEMENT, TYPE=S6,ELSET= _A-U18L
 440,  1108,  1110,  1116,  1109,  1113,  1112
 441,  1108,  1116,  1114,  1112,  1115,  1111
*SHELL SECTION,ELSET=_A-U18,MATERIAL=Epoxy
 0.15 
*SHELL SECTION,ELSET=_A-U18L,MATERIAL=COPPER
 0.01 
*ELSET, ELSET= E_ALL
_A-U18
_A-U18L
*ELEMENT, TYPE=S6,ELSET= _A-U19L
 442,  1117,  1119,  1125,  1118,  1122,  1121
 443,  1117,  1125,  1123,  1121,  1124,  1120
*ELEMENT, TYPE=S6,ELSET= _A-U19
 444,  1123,  1125,  1131,  1124,  1128,  1127
 445,  1123,  1131,  1129,  1127,  1130,  1126
*ELEMENT, TYPE=S6,ELSET= _A-U19L
 446,  1129,  1131,  1137,  1130,  1134,  1133
 447,  1129,  1137,  1135,  1133,  1136,  1132
*SHELL SECTION,ELSET=_A-U19,MATERIAL=Epoxy
 0.15 
*SHELL SECTION,ELSET=_A-U19L,MATERIAL=COPPER
 0.01 
*ELSET, ELSET= E_ALL
_A-U19
_A-U19L
*ELEMENT, TYPE=S6,ELSET= _A-U20L
 448,  1139,  1141,  1147,  1140,  1144,  1143
 449,  1139,  1147,  1145,  1143,  1146,  1142
*ELEMENT, TYPE=S6,ELSET= _A-U20
 450,  1145,  1147,  1153,  1146,  1150,  1149
 451,  1145,  1153,  1151,  1149,  1152,  1148
*ELEMENT, TYPE=S6,ELSET= _A-U20L
 452,  1151,  1153,  1159,  1152,  1156,  1155
 453,  1151,  1159,  1157,  1155,  1158,  1154
*SHELL SECTION,ELSET=_A-U20,MATERIAL=Epoxy
 0.15 
*SHELL SECTION,ELSET=_A-U20L,MATERIAL=COPPER
 0.01 
*ELSET, ELSET= E_ALL
_A-U20
_A-U20L
*ELEMENT, TYPE=S6,ELSET= _A-U23L
 454,  1162,  1164,  1170,  1163,  1167,  1166
 455,  1162,  1170,  1168,  1166,  1169,  1165
*ELEMENT, TYPE=S6,ELSET= _A-U23
 456,  1168,  1170,  1176,  1169,  1173,  1172
 457,  1168,  1176,  1174,  1172,  1175,  1171
*ELEMENT, TYPE=S6,ELSET= _A-U23L
 458,  1174,  1176,  1182,  1175,  1179,  1178
 459,  1174,  1182,  1180,  1178,  1181,  1177
*SHELL SECTION,ELSET=_A-U23,MATERIAL=Epoxy
 0.15 
*SHELL SECTION,ELSET=_A-U23L,MATERIAL=COPPER
 0.01 
*ELSET, ELSET= E_ALL
_A-U23
_A-U23L
*ELEMENT, TYPE=S6,ELSET= _A-U24L
 460,  1183,  1185,  1191,  1184,  1188,  1187
 461,  1183,  1191,  1189,  1187,  1190,  1186
*ELEMENT, TYPE=S6,ELSET= _A-U24
 462,  1189,  1191,  1197,  1190,  1194,  1193
 463,  1189,  1197,  1195,  1193,  1196,  1192
*ELEMENT, TYPE=S6,ELSET= _A-U24L
 464,  1195,  1197,  1203,  1196,  1200,  1199
 465,  1195,  1203,  1201,  1199,  1202,  1198
*SHELL SECTION,ELSET=_A-U24,MATERIAL=Epoxy
 0.15 
*SHELL SECTION,ELSET=_A-U24L,MATERIAL=COPPER
 0.01 
*ELSET, ELSET= E_ALL
_A-U24
_A-U24L
*ELEMENT, TYPE=S6,ELSET= _A-U25L
 466,  1204,  1206,  1212,  1205,  1209,  1208
 467,  1204,  1212,  1210,  1208,  1211,  1207
*ELEMENT, TYPE=S6,ELSET= _A-U25
 468,  1210,  1212,  1218,  1211,  1215,  1214
 469,  1210,  1218,  1216,  1214,  1217,  1213
*ELEMENT, TYPE=S6,ELSET= _A-U25L
 470,  1216,  1218,  1224,  1217,  1221,  1220
 471,  1216,  1224,  1222,  1220,  1223,  1219
*SHELL SECTION,ELSET=_A-U25,MATERIAL=Epoxy
 0.15 
*SHELL SECTION,ELSET=_A-U25L,MATERIAL=COPPER
 0.01 
*ELSET, ELSET= E_ALL
_A-U25
_A-U25L
*ELEMENT, TYPE=S6,ELSET= _A-U26L
 472,  1225,  1227,  1233,  1226,  1230,  1229
 473,  1225,  1233,  1231,  1229,  1232,  1228
*ELEMENT, TYPE=S6,ELSET= _A-U26
 474,  1231,  1233,  1239,  1232,  1236,  1235
 475,  1231,  1239,  1237,  1235,  1238,  1234
*ELEMENT, TYPE=S6,ELSET= _A-U26L
 476,  1237,  1239,  1245,  1238,  1242,  1241
 477,  1237,  1245,  1243,  1241,  1244,  1240
*SHELL SECTION,ELSET=_A-U26,MATERIAL=Epoxy
 0.15 
*SHELL SECTION,ELSET=_A-U26L,MATERIAL=COPPER
 0.01 
*ELSET, ELSET= E_ALL
_A-U26
_A-U26L
*ELEMENT, TYPE=S6,ELSET= _A-U27L
 478,  1246,  1248,  1254,  1247,  1251,  1250
 479,  1246,  1254,  1252,  1250,  1253,  1249
*ELEMENT, TYPE=S6,ELSET= _A-U27
 480,  1252,  1254,  1260,  1253,  1257,  1256
 481,  1252,  1260,  1258,  1256,  1259,  1255
*ELEMENT, TYPE=S6,ELSET= _A-U27L
 482,  1258,  1260,  1266,  1259,  1263,  1262
 483,  1258,  1266,  1264,  1262,  1265,  1261
*SHELL SECTION,ELSET=_A-U27,MATERIAL=Epoxy
 0.15 
*SHELL SECTION,ELSET=_A-U27L,MATERIAL=COPPER
 0.01 
*ELSET, ELSET= E_ALL
_A-U27
_A-U27L
*ELEMENT, TYPE=S6,ELSET= _A-U28L
 484,  1267,  1269,  1275,  1268,  1272,  1271
 485,  1267,  1275,  1273,  1271,  1274,  1270
*ELEMENT, TYPE=S6,ELSET= _A-U28
 486,  1273,  1275,  1281,  1274,  1278,  1277
 487,  1273,  1281,  1279,  1277,  1280,  1276
*ELEMENT, TYPE=S6,ELSET= _A-U28L
 488,  1279,  1281,  1287,  1280,  1284,  1283
 489,  1279,  1287,  1285,  1283,  1286,  1282
*SHELL SECTION,ELSET=_A-U28,MATERIAL=Epoxy
 0.15 
*SHELL SECTION,ELSET=_A-U28L,MATERIAL=COPPER
 0.01 
*ELSET, ELSET= E_ALL
_A-U28
_A-U28L
*ELEMENT, TYPE=S6,ELSET= _A-U29L
 490,  1288,  1290,  1296,  1289,  1293,  1292
 491,  1288,  1296,  1294,  1292,  1295,  1291
*ELEMENT, TYPE=S6,ELSET= _A-U29
 492,  1294,  1296,  1302,  1295,  1299,  1298
 493,  1294,  1302,  1300,  1298,  1301,  1297
*ELEMENT, TYPE=S6,ELSET= _A-U29L
 494,  1300,  1302,  1308,  1301,  1305,  1304
 495,  1300,  1308,  1306,  1304,  1307,  1303
*SHELL SECTION,ELSET=_A-U29,MATERIAL=Epoxy
 0.15 
*SHELL SECTION,ELSET=_A-U29L,MATERIAL=COPPER
 0.01 
*ELSET, ELSET= E_ALL
_A-U29
_A-U29L
*ELEMENT, TYPE=S6,ELSET= _A-U30L
 496,  1310,  1312,  1318,  1311,  1315,  1314
 497,  1310,  1318,  1316,  1314,  1317,  1313
*ELEMENT, TYPE=S6,ELSET= _A-U30
 498,  1316,  1318,  1324,  1317,  1321,  1320
 499,  1316,  1324,  1322,  1320,  1323,  1319
*ELEMENT, TYPE=S6,ELSET= _A-U30L
 500,  1322,  1324,  1330,  1323,  1327,  1326
 501,  1322,  1330,  1328,  1326,  1329,  1325
*SHELL SECTION,ELSET=_A-U30,MATERIAL=Epoxy
 0.15 
*SHELL SECTION,ELSET=_A-U30L,MATERIAL=COPPER
 0.01 
*ELSET, ELSET= E_ALL
_A-U30
_A-U30L
*ELEMENT, TYPE=S6,ELSET= _A-U31L
 502,  1331,  1333,  1339,  1332,  1336,  1335
 503,  1331,  1339,  1337,  1335,  1338,  1334
*ELEMENT, TYPE=S6,ELSET= _A-U31
 504,  1337,  1339,  1345,  1338,  1342,  1341
 505,  1337,  1345,  1343,  1341,  1344,  1340
*ELEMENT, TYPE=S6,ELSET= _A-U31L
 506,  1343,  1345,  1351,  1344,  1348,  1347
 507,  1343,  1351,  1349,  1347,  1350,  1346
*SHELL SECTION,ELSET=_A-U31,MATERIAL=Epoxy
 0.15 
*SHELL SECTION,ELSET=_A-U31L,MATERIAL=COPPER
 0.01 
*ELSET, ELSET= E_ALL
_A-U31
_A-U31L
*ELEMENT, TYPE=S6,ELSET= _A-U32L
 508,  1352,  1354,  1360,  1353,  1357,  1356
 509,  1352,  1360,  1358,  1356,  1359,  1355
*ELEMENT, TYPE=S6,ELSET= _A-U32
 510,  1358,  1360,  1366,  1359,  1363,  1362
 511,  1358,  1366,  1364,  1362,  1365,  1361
*ELEMENT, TYPE=S6,ELSET= _A-U32L
 512,  1364,  1366,  1372,  1365,  1369,  1368
 513,  1364,  1372,  1370,  1368,  1371,  1367
*SHELL SECTION,ELSET=_A-U32,MATERIAL=Epoxy
 0.15 
*SHELL SECTION,ELSET=_A-U32L,MATERIAL=COPPER
 0.01 
*ELSET, ELSET= E_ALL
_A-U32
_A-U32L
*ELEMENT, TYPE=S6,ELSET= _A-U33L
 514,  1373,  1375,  1381,  1374,  1378,  1377
 515,  1373,  1381,  1379,  1377,  1380,  1376
*ELEMENT, TYPE=S6,ELSET= _A-U33
 516,  1379,  1381,  1387,  1380,  1384,  1383
 517,  1379,  1387,  1385,  1383,  1386,  1382
*ELEMENT, TYPE=S6,ELSET= _A-U33L
 518,  1385,  1387,  1393,  1386,  1390,  1389
 519,  1385,  1393,  1391,  1389,  1392,  1388
*SHELL SECTION,ELSET=_A-U33,MATERIAL=Epoxy
 0.15 
*SHELL SECTION,ELSET=_A-U33L,MATERIAL=COPPER
 0.01 
*ELSET, ELSET= E_ALL
_A-U33
_A-U33L
*ELEMENT, TYPE=B32,ELSET=_A-R10L
 520,   836,   837,   838
 521,   838,   839,   840
 522,   840,   841,   842
*BEAM SECTION, ELSET=_A-R10L,MATERIAL=COPPER, SECTION = CIRC
 0.032 ,  0.032 
*ELEMENT, TYPE=B32,ELSET=_A-R10
 523,   838,   839,   840
*BEAM SECTION, ELSET=_A-R10,MATERIAL=Epoxy, SECTION = CIRC
 0.09 ,  0.09 
*ELSET, ELSET= E_ALL
_A-R10
_A-R10L
*ELEMENT, TYPE=B32,ELSET=_A-R11L
 524,   843,   844,   845
 525,   845,   846,   847
 526,   847,   848,   849
*BEAM SECTION, ELSET=_A-R11L,MATERIAL=COPPER, SECTION = CIRC
 0.032 ,  0.032 
*ELEMENT, TYPE=B32,ELSET=_A-R11
 527,   845,   846,   847
*BEAM SECTION, ELSET=_A-R11,MATERIAL=Epoxy, SECTION = CIRC
 0.09 ,  0.09 
*ELSET, ELSET= E_ALL
_A-R11
_A-R11L
*ELEMENT, TYPE=B32,ELSET=_A-R12L
 528,   850,   851,   852
 529,   852,   853,   854
 530,   854,   855,   856
*BEAM SECTION, ELSET=_A-R12L,MATERIAL=COPPER, SECTION = CIRC
 0.032 ,  0.032 
*ELEMENT, TYPE=B32,ELSET=_A-R12
 531,   852,   853,   854
*BEAM SECTION, ELSET=_A-R12,MATERIAL=Epoxy, SECTION = CIRC
 0.09 ,  0.09 
*ELSET, ELSET= E_ALL
_A-R12
_A-R12L
*ELEMENT, TYPE=B32,ELSET=_A-R13L
 532,   857,   858,   859
 533,   859,   860,   861
 534,   861,   862,   863
*BEAM SECTION, ELSET=_A-R13L,MATERIAL=COPPER, SECTION = CIRC
 0.032 ,  0.032 
*ELEMENT, TYPE=B32,ELSET=_A-R13
 535,   859,   860,   861
*BEAM SECTION, ELSET=_A-R13,MATERIAL=Epoxy, SECTION = CIRC
 0.09 ,  0.09 
*ELSET, ELSET= E_ALL
_A-R13
_A-R13L
*ELEMENT, TYPE=B32,ELSET=_A-R14L
 536,   864,   865,   866
 537,   866,   867,   868
 538,   868,   869,   870
*BEAM SECTION, ELSET=_A-R14L,MATERIAL=COPPER, SECTION = CIRC
 0.032 ,  0.032 
*ELEMENT, TYPE=B32,ELSET=_A-R14
 539,   866,   867,   868
*BEAM SECTION, ELSET=_A-R14,MATERIAL=Epoxy, SECTION = CIRC
 0.09 ,  0.09 
*ELSET, ELSET= E_ALL
_A-R14
_A-R14L
*ELEMENT, TYPE=B32,ELSET=_A-R5L
 540,   892,   893,   894
 541,   894,   895,   896
 542,   896,   897,   898
*BEAM SECTION, ELSET=_A-R5L,MATERIAL=COPPER, SECTION = CIRC
 0.032 ,  0.032 
*ELEMENT, TYPE=B32,ELSET=_A-R5
 543,   894,   895,   896
*BEAM SECTION, ELSET=_A-R5,MATERIAL=Epoxy, SECTION = CIRC
 0.09 ,  0.09 
*ELSET, ELSET= E_ALL
_A-R5
_A-R5L
*ELEMENT, TYPE=B32,ELSET=_A-R6L
 544,   899,   900,   901
 545,   901,   902,   903
 546,   903,   904,   905
*BEAM SECTION, ELSET=_A-R6L,MATERIAL=COPPER, SECTION = CIRC
 0.032 ,  0.032 
*ELEMENT, TYPE=B32,ELSET=_A-R6
 547,   901,   902,   903
*BEAM SECTION, ELSET=_A-R6,MATERIAL=Epoxy, SECTION = CIRC
 0.09 ,  0.09 
*ELSET, ELSET= E_ALL
_A-R6
_A-R6L
*ELEMENT, TYPE=B32,ELSET=_A-R7L
 548,   906,   907,   908
 549,   908,   909,   910
 550,   910,   911,   912
*BEAM SECTION, ELSET=_A-R7L,MATERIAL=COPPER, SECTION = CIRC
 0.032 ,  0.032 
*ELEMENT, TYPE=B32,ELSET=_A-R7
 551,   908,   909,   910
*BEAM SECTION, ELSET=_A-R7,MATERIAL=Epoxy, SECTION = CIRC
 0.09 ,  0.09 
*ELSET, ELSET= E_ALL
_A-R7
_A-R7L
*ELEMENT, TYPE=B32,ELSET=_A-R8L
 552,   913,   914,   915
 553,   915,   916,   917
 554,   917,   918,   919
*BEAM SECTION, ELSET=_A-R8L,MATERIAL=COPPER, SECTION = CIRC
 0.032 ,  0.032 
*ELEMENT, TYPE=B32,ELSET=_A-R8
 555,   915,   916,   917
*BEAM SECTION, ELSET=_A-R8,MATERIAL=Epoxy, SECTION = CIRC
 0.09 ,  0.09 
*ELSET, ELSET= E_ALL
_A-R8
_A-R8L
*ELEMENT, TYPE=B32,ELSET=_A-R9L
 556,   920,   921,   922
 557,   922,   923,   924
 558,   924,   925,   926
*BEAM SECTION, ELSET=_A-R9L,MATERIAL=COPPER, SECTION = CIRC
 0.032 ,  0.032 
*ELEMENT, TYPE=B32,ELSET=_A-R9
 559,   922,   923,   924
*BEAM SECTION, ELSET=_A-R9,MATERIAL=Epoxy, SECTION = CIRC
 0.09 ,  0.09 
*ELSET, ELSET= E_ALL
_A-R9
_A-R9L
*ELEMENT, TYPE=B32,ELSET=_A-R1L
 560,   829,   830,   831
 561,   831,   832,   833
 562,   833,   834,   835
*BEAM SECTION, ELSET=_A-R1L,MATERIAL=COPPER, SECTION = CIRC
 0.032 ,  0.032 
*ELEMENT, TYPE=B32,ELSET=_A-R1
 563,   831,   832,   833
*BEAM SECTION, ELSET=_A-R1,MATERIAL=Epoxy, SECTION = CIRC
 0.13 ,  0.13 
*ELSET, ELSET= E_ALL
_A-R1
_A-R1L
*ELEMENT, TYPE=B32,ELSET=_A-R2L
 564,   871,   872,   873
 565,   873,   874,   875
 566,   875,   876,   877
*BEAM SECTION, ELSET=_A-R2L,MATERIAL=COPPER, SECTION = CIRC
 0.032 ,  0.032 
*ELEMENT, TYPE=B32,ELSET=_A-R2
 567,   873,   874,   875
*BEAM SECTION, ELSET=_A-R2,MATERIAL=Epoxy, SECTION = CIRC
 0.13 ,  0.13 
*ELSET, ELSET= E_ALL
_A-R2
_A-R2L
*ELEMENT, TYPE=B32,ELSET=_A-R3L
 568,   878,   879,   880
 569,   880,   881,   882
 570,   882,   883,   884
*BEAM SECTION, ELSET=_A-R3L,MATERIAL=COPPER, SECTION = CIRC
 0.032 ,  0.032 
*ELEMENT, TYPE=B32,ELSET=_A-R3
 571,   880,   881,   882
*BEAM SECTION, ELSET=_A-R3,MATERIAL=Epoxy, SECTION = CIRC
 0.13 ,  0.13 
*ELSET, ELSET= E_ALL
_A-R3
_A-R3L
*ELEMENT, TYPE=B32,ELSET=_A-R4L
 572,   885,   886,   887
 573,   887,   888,   889
 574,   889,   890,   891
*BEAM SECTION, ELSET=_A-R4L,MATERIAL=COPPER, SECTION = CIRC
 0.032 ,  0.032 
*ELEMENT, TYPE=B32,ELSET=_A-R4
 575,   887,   888,   889
*BEAM SECTION, ELSET=_A-R4,MATERIAL=Epoxy, SECTION = CIRC
 0.13 ,  0.13 
*ELSET, ELSET= E_ALL
_A-R4
_A-R4L
*ELEMENT, TYPE=B32,ELSET=_A-C1L
 576,   6,   7,   8
 577,   8,   9,   10
 578,   10,   11,   12
*BEAM SECTION, ELSET=_A-C1L,MATERIAL=COPPER, SECTION = CIRC
 0.032 ,  0.032 
*ELEMENT, TYPE=B32,ELSET=_A-C1
 579,   8,   9,   10
*BEAM SECTION, ELSET=_A-C1,MATERIAL=Epoxy, SECTION = CIRC
 0.17 ,  0.1697908 
*ELSET, ELSET= E_ALL
_A-C1
_A-C1L
*ELEMENT, TYPE=B32,ELSET=_A-C2L
 580,   13,   14,   15
 581,   15,   16,   17
 582,   17,   18,   19
*BEAM SECTION, ELSET=_A-C2L,MATERIAL=COPPER, SECTION = CIRC
 0.032 ,  0.032 
*ELEMENT, TYPE=B32,ELSET=_A-C2
 583,   15,   16,   17
*BEAM SECTION, ELSET=_A-C2,MATERIAL=Epoxy, SECTION = CIRC
 0.17 ,  0.1697908 
*ELSET, ELSET= E_ALL
_A-C2
_A-C2L
*ELEMENT, TYPE=B32,ELSET=_A-C3L
 584,   20,   21,   22
 585,   22,   23,   24
 586,   24,   25,   26
*BEAM SECTION, ELSET=_A-C3L,MATERIAL=COPPER, SECTION = CIRC
 0.032 ,  0.032 
*ELEMENT, TYPE=B32,ELSET=_A-C3
 587,   22,   23,   24
*BEAM SECTION, ELSET=_A-C3,MATERIAL=Epoxy, SECTION = CIRC
 0.17 ,  0.1697908 
*ELSET, ELSET= E_ALL
_A-C3
_A-C3L
*ELEMENT, TYPE=B32,ELSET=_A-C4L
 588,   27,   28,   29
 589,   29,   30,   31
 590,   31,   32,   33
*BEAM SECTION, ELSET=_A-C4L,MATERIAL=COPPER, SECTION = CIRC
 0.032 ,  0.032 
*ELEMENT, TYPE=B32,ELSET=_A-C4
 591,   29,   30,   31
*BEAM SECTION, ELSET=_A-C4,MATERIAL=Epoxy, SECTION = CIRC
 0.17 ,  0.1697908 
*ELSET, ELSET= E_ALL
_A-C4
_A-C4L
**
*MATERIAL,NAME=COPPER
*ELASTIC,  
 1.8E+07 ,   0.3 
*DENSITY
 8.38509319238288E-04 
**
*MATERIAL,NAME=G10
*ELASTIC,  
 15000 ,   0.3 
*DENSITY
 1.6821945552747E-04 
**
*MATERIAL,NAME=Alum_6061
*ELASTIC,  
 1E+07 ,   0.3 
*DENSITY
 2.53623181772775E-04 
**
*MATERIAL,NAME=St_Stl_304
*ELASTIC,  
 3E+07 ,   0.3 
*DENSITY
 7.505175767478E-04 
**
*MATERIAL,NAME=Epoxy
*ELASTIC,  
 15000 ,   0.3 
*DENSITY
 1.06107663386357E-04 
**
*MATERIAL,NAME=_LINK
*ELASTIC,  
 1E+09,  .3 
*DENSITY
 1.0E-09
*NODE, NSET=N_LINK
 1520,  .3125,  5.660714, -.02325
*ELEMENT, TYPE=B32,ELSET=_L10-32
 592,  67,  1520,  135
*NODE, NSET=N_LINK
 1521, .375, 5.571428, 0
*ELEMENT, TYPE=B32,ELSET=_L10-32v
 593, 136, 1521, 135
*NODE, NSET=N_LINK
 1522,  .3125,  .3392857, -.02325
*ELEMENT, TYPE=B32,ELSET=_L10-32
 594,  70,  1522,  111
*NODE, NSET=N_LINK
 1523, .375, .4285715, 0
*ELEMENT, TYPE=B32,ELSET=_L10-32v
 595, 112, 1523, 111
*NODE, NSET=N_LINK
 1524,  8.6875,  5.660714, -.02325
*ELEMENT, TYPE=B32,ELSET=_L10-32
 596,  73,  1524,  795
*NODE, NSET=N_LINK
 1525, 8.625, 5.571428, 0
*ELEMENT, TYPE=B32,ELSET=_L10-32v
 597, 796, 1525, 795
*NODE, NSET=N_LINK
 1526,  8.6875,  .3392857, -.02325
*ELEMENT, TYPE=B32,ELSET=_L10-32
 598,  76,  1526,  771
*NODE, NSET=N_LINK
 1527, 8.625, .4285715, 0
*ELEMENT, TYPE=B32,ELSET=_L10-32v
 599, 772, 1527, 771
*NODE, NSET=N_LINK
 1528,  5.971875,  3.086525,  .0465
*ELEMENT, TYPE=B32,ELSET=_L10-32
 600,  34,  1528,  574
*NODE, NSET=N_LINK
 1529, 6, 3, 0
*ELEMENT, TYPE=B32,ELSET=_L10-32v
 601, 573, 1529, 574
*NODE, NSET=N_LINK
 1530,  7.125,  3.086525,  .0465
*ELEMENT, TYPE=B32,ELSET=_L10-32
 602,  35,  1530,  664
*NODE, NSET=N_LINK
 1531, 7.125, 3, 0
*ELEMENT, TYPE=B32,ELSET=_L10-32v
 603, 663, 1531, 664
*NODE, NSET=N_LINK
 1532,  8.278125,  3.086525,  .0465
*ELEMENT, TYPE=B32,ELSET=_L10-32
 604,  36,  1532,  754
*NODE, NSET=N_LINK
 1533, 8.25, 3, 0
*ELEMENT, TYPE=B32,ELSET=_L10-32v
 605, 753, 1533, 754
*NODE, NSET=N_LINK
 1534,  5.971875,  4.216157,  .0465
*ELEMENT, TYPE=B32,ELSET=_L10-32
 606,  37,  1534,  580
*NODE, NSET=N_LINK
 1535, 6, 4.285714, 0
*ELEMENT, TYPE=B32,ELSET=_L10-32v
 607, 579, 1535, 580
*NODE, NSET=N_LINK
 1536,  8.278125,  4.216157,  .0465
*ELEMENT, TYPE=B32,ELSET=_L10-32
 608,  38,  1536,  760
*NODE, NSET=N_LINK
 1537, 8.25, 4.285714, 0
*ELEMENT, TYPE=B32,ELSET=_L10-32v
 609, 759, 1537, 760
*NODE, NSET=N_LINK
 1538,  5.971875,  5.131504,  .0465
*ELEMENT, TYPE=B32,ELSET=_L10-32
 610,  39,  1538,  584
*NODE, NSET=N_LINK
 1539, 6, 5.142857, 0
*ELEMENT, TYPE=B32,ELSET=_L10-32v
 611, 583, 1539, 584
*NODE, NSET=N_LINK
 1540,  7.125,  5.131504,  .0465
*ELEMENT, TYPE=B32,ELSET=_L10-32
 612,  40,  1540,  674
*NODE, NSET=N_LINK
 1541, 7.125, 5.142857, 0
*ELEMENT, TYPE=B32,ELSET=_L10-32v
 613, 673, 1541, 674
*NODE, NSET=N_LINK
 1542,  8.278125,  5.131504,  .0465
*ELEMENT, TYPE=B32,ELSET=_L10-32
 614,  41,  1542,  764
*NODE, NSET=N_LINK
 1543, 8.25, 5.142857, 0
*ELEMENT, TYPE=B32,ELSET=_L10-32v
 615, 763, 1543, 764
*NODE, NSET=N_LINK
 1544,  4.3969,  .9333715,  .0465
*ELEMENT, TYPE=B32,ELSET=_L10-32
 616,  927,  1544,  414
*NODE, NSET=N_LINK
 1545, 4.125, .8571429, 0
*ELEMENT, TYPE=B32,ELSET=_L10-32v
 617, 413, 1545, 414
*NODE, NSET=N_LINK
 1546,  4.3969,  1.147657,  .0465
*ELEMENT, TYPE=B32,ELSET=_L10-32
 618,  927,  1546,  416
*NODE, NSET=N_LINK
 1547, 4.125, 1.285714, 0
*ELEMENT, TYPE=B32,ELSET=_L10-32v
 619, 415, 1547, 416
*NODE, NSET=N_LINK
 1548,  4.5844,  .9333715,  .0465
*ELEMENT, TYPE=B32,ELSET=_L10-32
 620,  927,  1548,  444
*NODE, NSET=N_LINK
 1549, 4.5, .8571429, 0
*ELEMENT, TYPE=B32,ELSET=_L10-32v
 621, 443, 1549, 444
*NODE, NSET=N_LINK
 1550,  4.5844,  1.147657,  .0465
*ELEMENT, TYPE=B32,ELSET=_L10-32
 622,  927,  1550,  446
*NODE, NSET=N_LINK
 1551, 4.5, 1.285714, 0
*ELEMENT, TYPE=B32,ELSET=_L10-32v
 623, 445, 1551, 446
*NODE, NSET=N_LINK
 1552,  4.7719,  .9333715,  .0465
*ELEMENT, TYPE=B32,ELSET=_L10-32
 624,  927,  1552,  474
*NODE, NSET=N_LINK
 1553, 4.875, .8571429, 0
*ELEMENT, TYPE=B32,ELSET=_L10-32v
 625, 473, 1553, 474
*NODE, NSET=N_LINK
 1554,  4.7719,  1.147657,  .0465
*ELEMENT, TYPE=B32,ELSET=_L10-32
 626,  927,  1554,  476
*NODE, NSET=N_LINK
 1555, 4.875, 1.285714, 0
*ELEMENT, TYPE=B32,ELSET=_L10-32v
 627, 475, 1555, 476
*NODE, NSET=N_LINK
 1556,  4.9594,  .9333715,  .0465
*ELEMENT, TYPE=B32,ELSET=_L10-32
 628,  927,  1556,  504
*NODE, NSET=N_LINK
 1557, 5.25, .8571429, 0
*ELEMENT, TYPE=B32,ELSET=_L10-32v
 629, 503, 1557, 504
*NODE, NSET=N_LINK
 1558,  4.9594,  1.147657,  .0465
*ELEMENT, TYPE=B32,ELSET=_L10-32
 630,  927,  1558,  506
*NODE, NSET=N_LINK
 1559, 5.25, 1.285714, 0
*ELEMENT, TYPE=B32,ELSET=_L10-32v
 631, 505, 1559, 506
*NODE, NSET=N_LINK
 1560,  5.98125,  .9333715,  .0465
*ELEMENT, TYPE=B32,ELSET=_L10-32
 632,  1138,  1560,  534
*NODE, NSET=N_LINK
 1561, 5.625, .8571429, 0
*ELEMENT, TYPE=B32,ELSET=_L10-32v
 633, 533, 1561, 534
*NODE, NSET=N_LINK
 1562,  5.98125,  1.147657,  .0465
*ELEMENT, TYPE=B32,ELSET=_L10-32
 634,  1138,  1562,  536
*NODE, NSET=N_LINK
 1563, 5.625, 1.285714, 0
*ELEMENT, TYPE=B32,ELSET=_L10-32v
 635, 535, 1563, 536
*NODE, NSET=N_LINK
 1564,  6.16875,  .9333715,  .0465
*ELEMENT, TYPE=B32,ELSET=_L10-32
 636,  1138,  1564,  564
*NODE, NSET=N_LINK
 1565, 6, .8571429, 0
*ELEMENT, TYPE=B32,ELSET=_L10-32v
 637, 563, 1565, 564
*NODE, NSET=N_LINK
 1566,  6.16875,  1.147657,  .0465
*ELEMENT, TYPE=B32,ELSET=_L10-32
 638,  1138,  1566,  566
*NODE, NSET=N_LINK
 1567, 6, 1.285714, 0
*ELEMENT, TYPE=B32,ELSET=_L10-32v
 639, 565, 1567, 566
*NODE, NSET=N_LINK
 1568,  6.35625,  .9333715,  .0465
*ELEMENT, TYPE=B32,ELSET=_L10-32
 640,  1138,  1568,  594
*NODE, NSET=N_LINK
 1569, 6.375, .8571429, 0
*ELEMENT, TYPE=B32,ELSET=_L10-32v
 641, 593, 1569, 594
*NODE, NSET=N_LINK
 1570,  6.35625,  1.147657,  .0465
*ELEMENT, TYPE=B32,ELSET=_L10-32
 642,  1138,  1570,  596
*NODE, NSET=N_LINK
 1571, 6.375, 1.285714, 0
*ELEMENT, TYPE=B32,ELSET=_L10-32v
 643, 595, 1571, 596
*NODE, NSET=N_LINK
 1572,  6.54375,  .9333715,  .0465
*ELEMENT, TYPE=B32,ELSET=_L10-32
 644,  1138,  1572,  624
*NODE, NSET=N_LINK
 1573, 6.75, .8571429, 0
*ELEMENT, TYPE=B32,ELSET=_L10-32v
 645, 623, 1573, 624
*NODE, NSET=N_LINK
 1574,  6.54375,  1.147657,  .0465
*ELEMENT, TYPE=B32,ELSET=_L10-32
 646,  1138,  1574,  626
*NODE, NSET=N_LINK
 1575, 6.75, 1.285714, 0
*ELEMENT, TYPE=B32,ELSET=_L10-32v
 647, 625, 1575, 626
*NODE, NSET=N_LINK
 1576,  7.75315,  .9333715,  .0465
*ELEMENT, TYPE=B32,ELSET=_L10-32
 648,  1309,  1576,  684
*NODE, NSET=N_LINK
 1577, 7.5, .8571429, 0
*ELEMENT, TYPE=B32,ELSET=_L10-32v
 649, 683, 1577, 684
*NODE, NSET=N_LINK
 1578,  7.75315,  1.147657,  .0465
*ELEMENT, TYPE=B32,ELSET=_L10-32
 650,  1309,  1578,  686
*NODE, NSET=N_LINK
 1579, 7.5, 1.285714, 0
*ELEMENT, TYPE=B32,ELSET=_L10-32v
 651, 685, 1579, 686
*NODE, NSET=N_LINK
 1580,  7.94065,  .9333715,  .0465
*ELEMENT, TYPE=B32,ELSET=_L10-32
 652,  1309,  1580,  714
*NODE, NSET=N_LINK
 1581, 7.875, .8571429, 0
*ELEMENT, TYPE=B32,ELSET=_L10-32v
 653, 713, 1581, 714
*NODE, NSET=N_LINK
 1582,  7.94065,  1.147657,  .0465
*ELEMENT, TYPE=B32,ELSET=_L10-32
 654,  1309,  1582,  716
*NODE, NSET=N_LINK
 1583, 7.875, 1.285714, 0
*ELEMENT, TYPE=B32,ELSET=_L10-32v
 655, 715, 1583, 716
*NODE, NSET=N_LINK
 1584,  8.12815,  .9333715,  .0465
*ELEMENT, TYPE=B32,ELSET=_L10-32
 656,  1309,  1584,  744
*NODE, NSET=N_LINK
 1585, 8.25, .8571429, 0
*ELEMENT, TYPE=B32,ELSET=_L10-32v
 657, 743, 1585, 744
*NODE, NSET=N_LINK
 1586,  8.12815,  1.147657,  .0465
*ELEMENT, TYPE=B32,ELSET=_L10-32
 658,  1309,  1586,  746
*NODE, NSET=N_LINK
 1587, 8.25, 1.285714, 0
*ELEMENT, TYPE=B32,ELSET=_L10-32v
 659, 745, 1587, 746
*NODE, NSET=N_LINK
 1588,  8.31565,  .9333715,  .0465
*ELEMENT, TYPE=B32,ELSET=_L10-32
 660,  1309,  1588,  774
*NODE, NSET=N_LINK
 1589, 8.625, .8571429, 0
*ELEMENT, TYPE=B32,ELSET=_L10-32v
 661, 773, 1589, 774
*NODE, NSET=N_LINK
 1590,  8.31565,  1.147657,  .0465
*ELEMENT, TYPE=B32,ELSET=_L10-32
 662,  1309,  1590,  776
*NODE, NSET=N_LINK
 1591, 8.625, 1.285714, 0
*ELEMENT, TYPE=B32,ELSET=_L10-32v
 663, 775, 1591, 776
*NODE, NSET=N_LINK
 1592,  1.911147,  3.827034,  .06525
*ELEMENT, TYPE=B32,ELSET=_L10-32
 664,  932,  1592,  248
*NODE, NSET=N_LINK
 1593, 1.875, 3.857143, 0
*ELEMENT, TYPE=B32,ELSET=_L10-32v
 665, 247, 1593, 248
*NODE, NSET=N_LINK
 1594,  2.294868,  3.823608,  .06525
*ELEMENT, TYPE=B32,ELSET=_L10-32
 666,  933,  1594,  278
*NODE, NSET=N_LINK
 1595, 2.25, 3.857143, 0
*ELEMENT, TYPE=B32,ELSET=_L10-32v
 667, 277, 1595, 278
*NODE, NSET=N_LINK
 1596,  1.527297,  3.822959,  .0465
*ELEMENT, TYPE=B32,ELSET=_L10-32
 668,  928,  1596,  218
*NODE, NSET=N_LINK
 1597, 1.5, 3.857143, 0
*ELEMENT, TYPE=B32,ELSET=_L10-32v
 669, 217, 1597, 218
*NODE, NSET=N_LINK
 1598,  1.911016,  3.819534,  .0465
*ELEMENT, TYPE=B32,ELSET=_L10-32
 670,  929,  1598,  248
*NODE, NSET=N_LINK
 1599,  2.294736,  3.816109,  .0465
*ELEMENT, TYPE=B32,ELSET=_L10-32
 671,  930,  1599,  278
*NODE, NSET=N_LINK
 1600,  1.530263,  4.207219,  .0465
*ELEMENT, TYPE=B32,ELSET=_L10-32
 672,  946,  1600,  220
*NODE, NSET=N_LINK
 1601, 1.5, 4.285714, 0
*ELEMENT, TYPE=B32,ELSET=_L10-32v
 673, 219, 1601, 220
*NODE, NSET=N_LINK
 1602,  1.913984,  4.203794,  .0465
*ELEMENT, TYPE=B32,ELSET=_L10-32
 674,  947,  1602,  250
*NODE, NSET=N_LINK
 1603, 1.875, 4.285714, 0
*ELEMENT, TYPE=B32,ELSET=_L10-32v
 675, 249, 1603, 250
*NODE, NSET=N_LINK
 1604,  2.297704,  4.200369,  .0465
*ELEMENT, TYPE=B32,ELSET=_L10-32
 676,  948,  1604,  280
*NODE, NSET=N_LINK
 1605, 2.25, 4.285714, 0
*ELEMENT, TYPE=B32,ELSET=_L10-32v
 677, 279, 1605, 280
*NODE, NSET=N_LINK
 1606,  2.707797,  4.340395,  .0465
*ELEMENT, TYPE=B32,ELSET=_L10-32
 678,  949,  1606,  310
*NODE, NSET=N_LINK
 1607, 2.625, 4.285714, 0
*ELEMENT, TYPE=B32,ELSET=_L10-32v
 679, 309, 1607, 310
*NODE, NSET=N_LINK
 1608,  3.091516,  4.33697,  .0465
*ELEMENT, TYPE=B32,ELSET=_L10-32
 680,  950,  1608,  340
*NODE, NSET=N_LINK
 1609, 3, 4.285714, 0
*ELEMENT, TYPE=B32,ELSET=_L10-32v
 681, 339, 1609, 340
*NODE, NSET=N_LINK
 1610,  3.662736,  4.333545,  .0465
*ELEMENT, TYPE=B32,ELSET=_L10-32
 682,  951,  1610,  400
*NODE, NSET=N_LINK
 1611, 3.75, 4.285714, 0
*ELEMENT, TYPE=B32,ELSET=_L10-32v
 683, 399, 1611, 400
*NODE, NSET=N_LINK
 1612,  2.710763,  4.724655,  .0465
*ELEMENT, TYPE=B32,ELSET=_L10-32
 684,  967,  1612,  312
*NODE, NSET=N_LINK
 1613, 2.625, 4.714286, 0
*ELEMENT, TYPE=B32,ELSET=_L10-32v
 685, 311, 1613, 312
*NODE, NSET=N_LINK
 1614,  3.281983,  4.72123,  .0465
*ELEMENT, TYPE=B32,ELSET=_L10-32
 686,  968,  1614,  372
*NODE, NSET=N_LINK
 1615, 3.375, 4.714286, 0
*ELEMENT, TYPE=B32,ELSET=_L10-32v
 687, 371, 1615, 372
*NODE, NSET=N_LINK
 1616,  3.665704,  4.717805,  .0465
*ELEMENT, TYPE=B32,ELSET=_L10-32
 688,  969,  1616,  402
*NODE, NSET=N_LINK
 1617, 3.75, 4.714286, 0
*ELEMENT, TYPE=B32,ELSET=_L10-32v
 689, 401, 1617, 402
*NODE, NSET=N_LINK
 1618,  3.811896,  4.340395,  .0465
*ELEMENT, TYPE=B32,ELSET=_L10-32
 690,  970,  1618,  400
*NODE, NSET=N_LINK
 1619,  4.195617,  4.33697,  .0465
*ELEMENT, TYPE=B32,ELSET=_L10-32
 691,  971,  1619,  430
*NODE, NSET=N_LINK
 1620, 4.125, 4.285714, 0
*ELEMENT, TYPE=B32,ELSET=_L10-32v
 692, 429, 1620, 430
*NODE, NSET=N_LINK
 1621,  4.579336,  4.333545,  .0465
*ELEMENT, TYPE=B32,ELSET=_L10-32
 693,  972,  1621,  460
*NODE, NSET=N_LINK
 1622, 4.5, 4.285714, 0
*ELEMENT, TYPE=B32,ELSET=_L10-32v
 694, 459, 1622, 460
*NODE, NSET=N_LINK
 1623,  3.814863,  4.724655,  .0465
*ELEMENT, TYPE=B32,ELSET=_L10-32
 695,  988,  1623,  402
*NODE, NSET=N_LINK
 1624,  4.198584,  4.72123,  .0465
*ELEMENT, TYPE=B32,ELSET=_L10-32
 696,  989,  1624,  432
*NODE, NSET=N_LINK
 1625, 4.125, 4.714286, 0
*ELEMENT, TYPE=B32,ELSET=_L10-32v
 697, 431, 1625, 432
*NODE, NSET=N_LINK
 1626,  4.582304,  4.717805,  .0465
*ELEMENT, TYPE=B32,ELSET=_L10-32
 698,  990,  1626,  462
*NODE, NSET=N_LINK
 1627, 4.5, 4.714286, 0
*ELEMENT, TYPE=B32,ELSET=_L10-32v
 699, 461, 1627, 462
*NODE, NSET=N_LINK
 1628,  5.304897,  3.827034,  .06525
*ELEMENT, TYPE=B32,ELSET=_L10-32
 700,  995,  1628,  518
*NODE, NSET=N_LINK
 1629, 5.25, 3.857143, 0
*ELEMENT, TYPE=B32,ELSET=_L10-32v
 701, 517, 1629, 518
*NODE, NSET=N_LINK
 1630,  5.688618,  3.823608,  .06525
*ELEMENT, TYPE=B32,ELSET=_L10-32
 702,  996,  1630,  548
*NODE, NSET=N_LINK
 1631, 5.625, 3.857143, 0
*ELEMENT, TYPE=B32,ELSET=_L10-32v
 703, 547, 1631, 548
*NODE, NSET=N_LINK
 1632,  4.921046,  3.822959,  .0465
*ELEMENT, TYPE=B32,ELSET=_L10-32
 704,  991,  1632,  488
*NODE, NSET=N_LINK
 1633, 4.875, 3.857143, 0
*ELEMENT, TYPE=B32,ELSET=_L10-32v
 705, 487, 1633, 488
*NODE, NSET=N_LINK
 1634,  5.304767,  3.819534,  .0465
*ELEMENT, TYPE=B32,ELSET=_L10-32
 706,  992,  1634,  518
*NODE, NSET=N_LINK
 1635,  5.688487,  3.816109,  .0465
*ELEMENT, TYPE=B32,ELSET=_L10-32
 707,  993,  1635,  548
*NODE, NSET=N_LINK
 1636,  4.924014,  4.207219,  .0465
*ELEMENT, TYPE=B32,ELSET=_L10-32
 708,  1009,  1636,  490
*NODE, NSET=N_LINK
 1637, 4.875, 4.285714, 0
*ELEMENT, TYPE=B32,ELSET=_L10-32v
 709, 489, 1637, 490
*NODE, NSET=N_LINK
 1638,  5.307734,  4.203794,  .0465
*ELEMENT, TYPE=B32,ELSET=_L10-32
 710,  1010,  1638,  520
*NODE, NSET=N_LINK
 1639, 5.25, 4.285714, 0
*ELEMENT, TYPE=B32,ELSET=_L10-32v
 711, 519, 1639, 520
*NODE, NSET=N_LINK
 1640,  5.691453,  4.200369,  .0465
*ELEMENT, TYPE=B32,ELSET=_L10-32
 712,  1011,  1640,  550
*NODE, NSET=N_LINK
 1641, 5.625, 4.285714, 0
*ELEMENT, TYPE=B32,ELSET=_L10-32v
 713, 549, 1641, 550
*NODE, NSET=N_LINK
 1642,  6.289363,  4.731455,  .0465
*ELEMENT, TYPE=B32,ELSET=_L10-32
 714,  1030,  1642,  612
*NODE, NSET=N_LINK
 1643, 6.375, 4.714286, 0
*ELEMENT, TYPE=B32,ELSET=_L10-32v
 715, 611, 1643, 612
*NODE, NSET=N_LINK
 1644,  6.673083,  4.72803,  .0465
*ELEMENT, TYPE=B32,ELSET=_L10-32
 716,  1031,  1644,  642
*NODE, NSET=N_LINK
 1645, 6.75, 4.714286, 0
*ELEMENT, TYPE=B32,ELSET=_L10-32v
 717, 641, 1645, 642
*NODE, NSET=N_LINK
 1646,  6.286397,  4.347195,  .0465
*ELEMENT, TYPE=B32,ELSET=_L10-32
 718,  1012,  1646,  610
*NODE, NSET=N_LINK
 1647, 6.375, 4.285714, 0
*ELEMENT, TYPE=B32,ELSET=_L10-32v
 719, 609, 1647, 610
*NODE, NSET=N_LINK
 1648,  6.670116,  4.34377,  .0465
*ELEMENT, TYPE=B32,ELSET=_L10-32
 720,  1013,  1648,  640
*NODE, NSET=N_LINK
 1649, 6.75, 4.285714, 0
*ELEMENT, TYPE=B32,ELSET=_L10-32v
 721, 639, 1649, 640
*NODE, NSET=N_LINK
 1650,  7.053837,  4.340345,  .0465
*ELEMENT, TYPE=B32,ELSET=_L10-32
 722,  1014,  1650,  670
*NODE, NSET=N_LINK
 1651, 7.125, 4.285714, 0
*ELEMENT, TYPE=B32,ELSET=_L10-32v
 723, 669, 1651, 670
*NODE, NSET=N_LINK
 1652,  7.056804,  4.724605,  .0465
*ELEMENT, TYPE=B32,ELSET=_L10-32
 724,  1032,  1652,  672
*NODE, NSET=N_LINK
 1653, 7.125, 4.714286, 0
*ELEMENT, TYPE=B32,ELSET=_L10-32v
 725, 671, 1653, 672
*NODE, NSET=N_LINK
 1654,  7.551984,  4.72803,  .0465
*ELEMENT, TYPE=B32,ELSET=_L10-32
 726,  1052,  1654,  702
*NODE, NSET=N_LINK
 1655, 7.5, 4.714286, 0
*ELEMENT, TYPE=B32,ELSET=_L10-32v
 727, 701, 1655, 702
*NODE, NSET=N_LINK
 1656,  7.935703,  4.724605,  .0465
*ELEMENT, TYPE=B32,ELSET=_L10-32
 728,  1053,  1656,  732
*NODE, NSET=N_LINK
 1657, 7.875, 4.714286, 0
*ELEMENT, TYPE=B32,ELSET=_L10-32v
 729, 731, 1657, 732
*NODE, NSET=N_LINK
 1658,  7.165297,  4.347195,  .0465
*ELEMENT, TYPE=B32,ELSET=_L10-32
 730,  1033,  1658,  670
*NODE, NSET=N_LINK
 1659,  7.549016,  4.34377,  .0465
*ELEMENT, TYPE=B32,ELSET=_L10-32
 731,  1034,  1659,  700
*NODE, NSET=N_LINK
 1660, 7.5, 4.285714, 0
*ELEMENT, TYPE=B32,ELSET=_L10-32v
 732, 699, 1660, 700
*NODE, NSET=N_LINK
 1661,  7.932736,  4.340345,  .0465
*ELEMENT, TYPE=B32,ELSET=_L10-32
 733,  1035,  1661,  730
*NODE, NSET=N_LINK
 1662, 7.875, 4.285714, 0
*ELEMENT, TYPE=B32,ELSET=_L10-32v
 734, 729, 1662, 730
*NODE, NSET=N_LINK
 1663,  7.168263,  4.731455,  .0465
*ELEMENT, TYPE=B32,ELSET=_L10-32
 735,  1051,  1663,  672
*NODE, NSET=N_LINK
 1664,  7.558466,  3.830684,  .0465
*ELEMENT, TYPE=B32,ELSET=_L10-32
 736,  1055,  1664,  698
*NODE, NSET=N_LINK
 1665, 7.5, 3.857143, 0
*ELEMENT, TYPE=B32,ELSET=_L10-32v
 737, 697, 1665, 698
*NODE, NSET=N_LINK
 1666,  7.942317,  3.834759,  .06525
*ELEMENT, TYPE=B32,ELSET=_L10-32
 738,  1059,  1666,  728
*NODE, NSET=N_LINK
 1667, 7.875, 3.857143, 0
*ELEMENT, TYPE=B32,ELSET=_L10-32v
 739, 727, 1667, 728
*NODE, NSET=N_LINK
 1668,  7.174747,  3.834109,  .0465
*ELEMENT, TYPE=B32,ELSET=_L10-32
 740,  1054,  1668,  668
*NODE, NSET=N_LINK
 1669, 7.125, 3.857143, 0
*ELEMENT, TYPE=B32,ELSET=_L10-32v
 741, 667, 1669, 668
*NODE, NSET=N_LINK
 1670,  7.942187,  3.82726,  .0465
*ELEMENT, TYPE=B32,ELSET=_L10-32
 742,  1056,  1670,  728
*NODE, NSET=N_LINK
 1671,  7.177713,  4.218369,  .0465
*ELEMENT, TYPE=B32,ELSET=_L10-32
 743,  1072,  1671,  670
*NODE, NSET=N_LINK
 1672,  7.561434,  4.214944,  .0465
*ELEMENT, TYPE=B32,ELSET=_L10-32
 744,  1073,  1672,  700
*NODE, NSET=N_LINK
 1673,  7.945154,  4.211519,  .0465
*ELEMENT, TYPE=B32,ELSET=_L10-32
 745,  1074,  1673,  730
*NODE, NSET=N_LINK
 1674,  6.286397,  3.834109,  .0465
*ELEMENT, TYPE=B32,ELSET=_L10-32
 746,  1075,  1674,  608
*NODE, NSET=N_LINK
 1675, 6.375, 3.857143, 0
*ELEMENT, TYPE=B32,ELSET=_L10-32v
 747, 607, 1675, 608
*NODE, NSET=N_LINK
 1676,  6.670248,  3.838183,  .06525
*ELEMENT, TYPE=B32,ELSET=_L10-32
 748,  1079,  1676,  638
*NODE, NSET=N_LINK
 1677, 6.75, 3.857143, 0
*ELEMENT, TYPE=B32,ELSET=_L10-32v
 749, 637, 1677, 638
*NODE, NSET=N_LINK
 1678,  6.670116,  3.830684,  .0465
*ELEMENT, TYPE=B32,ELSET=_L10-32
 750,  1076,  1678,  638
*NODE, NSET=N_LINK
 1679,  7.053837,  3.82726,  .0465
*ELEMENT, TYPE=B32,ELSET=_L10-32
 751,  1077,  1679,  668
*NODE, NSET=N_LINK
 1680,  6.289363,  4.218369,  .0465
*ELEMENT, TYPE=B32,ELSET=_L10-32
 752,  1093,  1680,  610
*NODE, NSET=N_LINK
 1681,  6.673083,  4.214944,  .0465
*ELEMENT, TYPE=B32,ELSET=_L10-32
 753,  1094,  1681,  640
*NODE, NSET=N_LINK
 1682,  7.056804,  4.211519,  .0465
*ELEMENT, TYPE=B32,ELSET=_L10-32
 754,  1095,  1682,  670
*NODE, NSET=N_LINK
 1683,  .4210464,  4.340145,  .0465
*ELEMENT, TYPE=B32,ELSET=_L10-32
 755,  1394,  1683,  130
*NODE, NSET=N_LINK
 1684, .375, 4.285714, 0
*ELEMENT, TYPE=B32,ELSET=_L10-32v
 756, 129, 1684, 130
*NODE, NSET=N_LINK
 1685,  .8047665,  4.33672,  .0465
*ELEMENT, TYPE=B32,ELSET=_L10-32
 757,  1395,  1685,  160
*NODE, NSET=N_LINK
 1686, .75, 4.285714, 0
*ELEMENT, TYPE=B32,ELSET=_L10-32v
 758, 159, 1686, 160
*NODE, NSET=N_LINK
 1687,  1.188487,  4.333295,  .0465
*ELEMENT, TYPE=B32,ELSET=_L10-32
 759,  1396,  1687,  190
*NODE, NSET=N_LINK
 1688, 1.125, 4.285714, 0
*ELEMENT, TYPE=B32,ELSET=_L10-32v
 760, 189, 1688, 190
*NODE, NSET=N_LINK
 1689,  .4240133,  4.724405,  .0465
*ELEMENT, TYPE=B32,ELSET=_L10-32
 761,  1412,  1689,  132
*NODE, NSET=N_LINK
 1690, .375, 4.714286, 0
*ELEMENT, TYPE=B32,ELSET=_L10-32v
 762, 131, 1690, 132
*NODE, NSET=N_LINK
 1691,  .8077334,  4.72098,  .0465
*ELEMENT, TYPE=B32,ELSET=_L10-32
 763,  1413,  1691,  162
*NODE, NSET=N_LINK
 1692, .75, 4.714286, 0
*ELEMENT, TYPE=B32,ELSET=_L10-32v
 764, 161, 1692, 162
*NODE, NSET=N_LINK
 1693,  1.191453,  4.717555,  .0465
*ELEMENT, TYPE=B32,ELSET=_L10-32
 765,  1414,  1693,  192
*NODE, NSET=N_LINK
 1694, 1.125, 4.714286, 0
*ELEMENT, TYPE=B32,ELSET=_L10-32v
 766, 191, 1694, 192
*NODE, NSET=N_LINK
 1695,  4.191048,  3.819384,  .06525
*ELEMENT, TYPE=B32,ELSET=_L10-32
 767,  1419,  1695,  428
*NODE, NSET=N_LINK
 1696, 4.125, 3.857143, 0
*ELEMENT, TYPE=B32,ELSET=_L10-32v
 768, 427, 1696, 428
*NODE, NSET=N_LINK
 1697,  4.574768,  3.815958,  .06525
*ELEMENT, TYPE=B32,ELSET=_L10-32
 769,  1420,  1697,  458
*NODE, NSET=N_LINK
 1698, 4.5, 3.857143, 0
*ELEMENT, TYPE=B32,ELSET=_L10-32v
 770, 457, 1698, 458
*NODE, NSET=N_LINK
 1699,  3.807197,  3.81531,  .0465
*ELEMENT, TYPE=B32,ELSET=_L10-32
 771,  1415,  1699,  398
*NODE, NSET=N_LINK
 1700, 3.75, 3.857143, 0
*ELEMENT, TYPE=B32,ELSET=_L10-32v
 772, 397, 1700, 398
*NODE, NSET=N_LINK
 1701,  4.190917,  3.811884,  .0465
*ELEMENT, TYPE=B32,ELSET=_L10-32
 773,  1416,  1701,  428
*NODE, NSET=N_LINK
 1702,  4.574636,  3.80846,  .0465
*ELEMENT, TYPE=B32,ELSET=_L10-32
 774,  1417,  1702,  458
*NODE, NSET=N_LINK
 1703,  3.810163,  4.199569,  .0465
*ELEMENT, TYPE=B32,ELSET=_L10-32
 775,  1433,  1703,  400
*NODE, NSET=N_LINK
 1704,  4.193883,  4.196144,  .0465
*ELEMENT, TYPE=B32,ELSET=_L10-32
 776,  1434,  1704,  430
*NODE, NSET=N_LINK
 1705,  4.577603,  4.192719,  .0465
*ELEMENT, TYPE=B32,ELSET=_L10-32
 777,  1435,  1705,  460
*NODE, NSET=N_LINK
 1706,  1.517946,  4.340145,  .0465
*ELEMENT, TYPE=B32,ELSET=_L10-32
 778,  1436,  1706,  220
*NODE, NSET=N_LINK
 1707,  1.901667,  4.33672,  .0465
*ELEMENT, TYPE=B32,ELSET=_L10-32
 779,  1437,  1707,  250
*NODE, NSET=N_LINK
 1708,  2.285387,  4.333295,  .0465
*ELEMENT, TYPE=B32,ELSET=_L10-32
 780,  1438,  1708,  280
*NODE, NSET=N_LINK
 1709,  1.520913,  4.724405,  .0465
*ELEMENT, TYPE=B32,ELSET=_L10-32
 781,  1454,  1709,  222
*NODE, NSET=N_LINK
 1710, 1.5, 4.714286, 0
*ELEMENT, TYPE=B32,ELSET=_L10-32v
 782, 221, 1710, 222
*NODE, NSET=N_LINK
 1711,  1.904634,  4.72098,  .0465
*ELEMENT, TYPE=B32,ELSET=_L10-32
 783,  1455,  1711,  252
*NODE, NSET=N_LINK
 1712, 1.875, 4.714286, 0
*ELEMENT, TYPE=B32,ELSET=_L10-32v
 784, 251, 1712, 252
*NODE, NSET=N_LINK
 1713,  2.288353,  4.717555,  .0465
*ELEMENT, TYPE=B32,ELSET=_L10-32
 785,  1456,  1713,  282
*NODE, NSET=N_LINK
 1714, 2.25, 4.714286, 0
*ELEMENT, TYPE=B32,ELSET=_L10-32v
 786, 281, 1714, 282
*NODE, NSET=N_LINK
 1715,  3.083047,  3.827034,  .06525
*ELEMENT, TYPE=B32,ELSET=_L10-32
 787,  1461,  1715,  338
*NODE, NSET=N_LINK
 1716, 3, 3.857143, 0
*ELEMENT, TYPE=B32,ELSET=_L10-32v
 788, 337, 1716, 338
*NODE, NSET=N_LINK
 1717,  3.466768,  3.823608,  .06525
*ELEMENT, TYPE=B32,ELSET=_L10-32
 789,  1462,  1717,  368
*NODE, NSET=N_LINK
 1718, 3.375, 3.857143, 0
*ELEMENT, TYPE=B32,ELSET=_L10-32v
 790, 367, 1718, 368
*NODE, NSET=N_LINK
 1719,  2.699196,  3.822959,  .0465
*ELEMENT, TYPE=B32,ELSET=_L10-32
 791,  1457,  1719,  308
*NODE, NSET=N_LINK
 1720, 2.625, 3.857143, 0
*ELEMENT, TYPE=B32,ELSET=_L10-32v
 792, 307, 1720, 308
*NODE, NSET=N_LINK
 1721,  3.082916,  3.819534,  .0465
*ELEMENT, TYPE=B32,ELSET=_L10-32
 793,  1458,  1721,  338
*NODE, NSET=N_LINK
 1722,  3.466637,  3.816109,  .0465
*ELEMENT, TYPE=B32,ELSET=_L10-32
 794,  1459,  1722,  368
*NODE, NSET=N_LINK
 1723,  2.702163,  4.207219,  .0465
*ELEMENT, TYPE=B32,ELSET=_L10-32
 795,  1475,  1723,  310
*NODE, NSET=N_LINK
 1724,  3.085884,  4.203794,  .0465
*ELEMENT, TYPE=B32,ELSET=_L10-32
 796,  1476,  1724,  340
*NODE, NSET=N_LINK
 1725,  3.657104,  4.200369,  .0465
*ELEMENT, TYPE=B32,ELSET=_L10-32
 797,  1477,  1725,  400
*NODE, NSET=N_LINK
 1726,  4.930146,  4.340395,  .0465
*ELEMENT, TYPE=B32,ELSET=_L10-32
 798,  1478,  1726,  490
*NODE, NSET=N_LINK
 1727,  5.313867,  4.33697,  .0465
*ELEMENT, TYPE=B32,ELSET=_L10-32
 799,  1479,  1727,  520
*NODE, NSET=N_LINK
 1728,  5.697587,  4.333545,  .0465
*ELEMENT, TYPE=B32,ELSET=_L10-32
 800,  1480,  1728,  550
*NODE, NSET=N_LINK
 1729,  4.933114,  4.724655,  .0465
*ELEMENT, TYPE=B32,ELSET=_L10-32
 801,  1496,  1729,  492
*NODE, NSET=N_LINK
 1730, 4.875, 4.714286, 0
*ELEMENT, TYPE=B32,ELSET=_L10-32v
 802, 491, 1730, 492
*NODE, NSET=N_LINK
 1731,  5.316833,  4.72123,  .0465
*ELEMENT, TYPE=B32,ELSET=_L10-32
 803,  1497,  1731,  522
*NODE, NSET=N_LINK
 1732, 5.25, 4.714286, 0
*ELEMENT, TYPE=B32,ELSET=_L10-32v
 804, 521, 1732, 522
*NODE, NSET=N_LINK
 1733,  5.700553,  4.717805,  .0465
*ELEMENT, TYPE=B32,ELSET=_L10-32
 805,  1498,  1733,  552
*NODE, NSET=N_LINK
 1734, 5.625, 4.714286, 0
*ELEMENT, TYPE=B32,ELSET=_L10-32v
 806, 551, 1734, 552
*NODE, NSET=N_LINK
 1735,  .8142974,  3.827034,  .06525
*ELEMENT, TYPE=B32,ELSET=_L10-32
 807,  1503,  1735,  158
*NODE, NSET=N_LINK
 1736, .75, 3.857143, 0
*ELEMENT, TYPE=B32,ELSET=_L10-32v
 808, 157, 1736, 158
*NODE, NSET=N_LINK
 1737,  1.198017,  3.823608,  .06525
*ELEMENT, TYPE=B32,ELSET=_L10-32
 809,  1504,  1737,  188
*NODE, NSET=N_LINK
 1738, 1.125, 3.857143, 0
*ELEMENT, TYPE=B32,ELSET=_L10-32v
 810, 187, 1738, 188
*NODE, NSET=N_LINK
 1739,  .4304464,  3.822959,  .0465
*ELEMENT, TYPE=B32,ELSET=_L10-32
 811,  1499,  1739,  128
*NODE, NSET=N_LINK
 1740, .375, 3.857143, 0
*ELEMENT, TYPE=B32,ELSET=_L10-32v
 812, 127, 1740, 128
*NODE, NSET=N_LINK
 1741,  .8141665,  3.819534,  .0465
*ELEMENT, TYPE=B32,ELSET=_L10-32
 813,  1500,  1741,  158
*NODE, NSET=N_LINK
 1742,  1.197886,  3.816109,  .0465
*ELEMENT, TYPE=B32,ELSET=_L10-32
 814,  1501,  1742,  188
*NODE, NSET=N_LINK
 1743,  .4334134,  4.207219,  .0465
*ELEMENT, TYPE=B32,ELSET=_L10-32
 815,  1517,  1743,  130
*NODE, NSET=N_LINK
 1744,  .8171334,  4.203794,  .0465
*ELEMENT, TYPE=B32,ELSET=_L10-32
 816,  1518,  1744,  160
*NODE, NSET=N_LINK
 1745,  1.200854,  4.200369,  .0465
*ELEMENT, TYPE=B32,ELSET=_L10-32
 817,  1519,  1745,  190
*NODE, NSET=N_LINK
 1746,  .9958501,  .6891215,  .0465
*ELEMENT, TYPE=B32,ELSET=_L10-32
 818,  59,  1746,  174
*NODE, NSET=N_LINK
 1747, 1.125, .8571429, 0
*ELEMENT, TYPE=B32,ELSET=_L10-32v
 819, 173, 1747, 174
*NODE, NSET=N_LINK
 1748,  .9958501,  1.403407,  .0465
*ELEMENT, TYPE=B32,ELSET=_L10-32
 820,  61,  1748,  176
*NODE, NSET=N_LINK
 1749, 1.125, 1.285714, 0
*ELEMENT, TYPE=B32,ELSET=_L10-32v
 821, 175, 1749, 176
*NODE, NSET=N_LINK
 1750,  1.80835,  .6891215,  .0465
*ELEMENT, TYPE=B32,ELSET=_L10-32
 822,  60,  1750,  204
*NODE, NSET=N_LINK
 1751, 1.5, .8571429, 0
*ELEMENT, TYPE=B32,ELSET=_L10-32v
 823, 203, 1751, 204
*NODE, NSET=N_LINK
 1752,  1.80835,  1.403407,  .0465
*ELEMENT, TYPE=B32,ELSET=_L10-32
 824,  62,  1752,  206
*NODE, NSET=N_LINK
 1753, 1.5, 1.285714, 0
*ELEMENT, TYPE=B32,ELSET=_L10-32v
 825, 205, 1753, 206
*NODE, NSET=N_LINK
 1754,  1.99585,  .6891215,  .0465
*ELEMENT, TYPE=B32,ELSET=_L10-32
 826,  60,  1754,  234
*NODE, NSET=N_LINK
 1755, 1.875, .8571429, 0
*ELEMENT, TYPE=B32,ELSET=_L10-32v
 827, 233, 1755, 234
*NODE, NSET=N_LINK
 1756,  1.99585,  1.403407,  .0465
*ELEMENT, TYPE=B32,ELSET=_L10-32
 828,  62,  1756,  236
*NODE, NSET=N_LINK
 1757, 1.875, 1.285714, 0
*ELEMENT, TYPE=B32,ELSET=_L10-32v
 829, 235, 1757, 236
*NODE, NSET=N_LINK
 1758,  2.909446,  2.574802,  .0465
*ELEMENT, TYPE=B32,ELSET=_L10-32
 830,  1096,  1758,  332
*NODE, NSET=N_LINK
 1759, 3, 2.571429, 0
*ELEMENT, TYPE=B32,ELSET=_L10-32v
 831, 331, 1759, 332
*NODE, NSET=N_LINK
 1760,  3.293167,  2.571378,  .0465
*ELEMENT, TYPE=B32,ELSET=_L10-32
 832,  1097,  1760,  362
*NODE, NSET=N_LINK
 1761, 3.375, 2.571429, 0
*ELEMENT, TYPE=B32,ELSET=_L10-32v
 833, 361, 1761, 362
*NODE, NSET=N_LINK
 1762,  3.676887,  2.567953,  .0465
*ELEMENT, TYPE=B32,ELSET=_L10-32
 834,  1098,  1762,  392
*NODE, NSET=N_LINK
 1763, 3.75, 2.571429, 0
*ELEMENT, TYPE=B32,ELSET=_L10-32v
 835, 391, 1763, 392
*NODE, NSET=N_LINK
 1764,  2.912414,  2.959062,  .0465
*ELEMENT, TYPE=B32,ELSET=_L10-32
 836,  1114,  1764,  334
*NODE, NSET=N_LINK
 1765, 3, 3, 0
*ELEMENT, TYPE=B32,ELSET=_L10-32v
 837, 333, 1765, 334
*NODE, NSET=N_LINK
 1766,  3.296134,  2.955637,  .0465
*ELEMENT, TYPE=B32,ELSET=_L10-32
 838,  1115,  1766,  364
*NODE, NSET=N_LINK
 1767, 3.375, 3, 0
*ELEMENT, TYPE=B32,ELSET=_L10-32v
 839, 363, 1767, 364
*NODE, NSET=N_LINK
 1768,  3.679853,  2.952212,  .0465
*ELEMENT, TYPE=B32,ELSET=_L10-32
 840,  1116,  1768,  394
*NODE, NSET=N_LINK
 1769, 3.75, 3, 0
*ELEMENT, TYPE=B32,ELSET=_L10-32v
 841, 393, 1769, 394
*NODE, NSET=N_LINK
 1770,  .4304464,  2.574353,  .0465
*ELEMENT, TYPE=B32,ELSET=_L10-32
 842,  1117,  1770,  122
*NODE, NSET=N_LINK
 1771, .375, 2.571429, 0
*ELEMENT, TYPE=B32,ELSET=_L10-32v
 843, 121, 1771, 122
*NODE, NSET=N_LINK
 1772,  .8141665,  2.570928,  .0465
*ELEMENT, TYPE=B32,ELSET=_L10-32
 844,  1118,  1772,  152
*NODE, NSET=N_LINK
 1773, .75, 2.571429, 0
*ELEMENT, TYPE=B32,ELSET=_L10-32v
 845, 151, 1773, 152
*NODE, NSET=N_LINK
 1774,  1.197886,  2.567502,  .0465
*ELEMENT, TYPE=B32,ELSET=_L10-32
 846,  1119,  1774,  182
*NODE, NSET=N_LINK
 1775, 1.125, 2.571429, 0
*ELEMENT, TYPE=B32,ELSET=_L10-32v
 847, 181, 1775, 182
*NODE, NSET=N_LINK
 1776,  .4334134,  2.958612,  .0465
*ELEMENT, TYPE=B32,ELSET=_L10-32
 848,  1135,  1776,  124
*NODE, NSET=N_LINK
 1777, .375, 3, 0
*ELEMENT, TYPE=B32,ELSET=_L10-32v
 849, 123, 1777, 124
*NODE, NSET=N_LINK
 1778,  .8171334,  2.955187,  .0465
*ELEMENT, TYPE=B32,ELSET=_L10-32
 850,  1136,  1778,  154
*NODE, NSET=N_LINK
 1779, .75, 3, 0
*ELEMENT, TYPE=B32,ELSET=_L10-32v
 851, 153, 1779, 154
*NODE, NSET=N_LINK
 1780,  1.200854,  2.951762,  .0465
*ELEMENT, TYPE=B32,ELSET=_L10-32
 852,  1137,  1780,  184
*NODE, NSET=N_LINK
 1781, 1.125, 3, 0
*ELEMENT, TYPE=B32,ELSET=_L10-32v
 853, 183, 1781, 184
*NODE, NSET=N_LINK
 1782,  1.592896,  2.574353,  .0465
*ELEMENT, TYPE=B32,ELSET=_L10-32
 854,  1139,  1782,  212
*NODE, NSET=N_LINK
 1783, 1.5, 2.571429, 0
*ELEMENT, TYPE=B32,ELSET=_L10-32v
 855, 211, 1783, 212
*NODE, NSET=N_LINK
 1784,  2.164116,  2.570928,  .0465
*ELEMENT, TYPE=B32,ELSET=_L10-32
 856,  1140,  1784,  272
*NODE, NSET=N_LINK
 1785, 2.25, 2.571429, 0
*ELEMENT, TYPE=B32,ELSET=_L10-32v
 857, 271, 1785, 272
*NODE, NSET=N_LINK
 1786,  2.547837,  2.567502,  .0465
*ELEMENT, TYPE=B32,ELSET=_L10-32
 858,  1141,  1786,  302
*NODE, NSET=N_LINK
 1787, 2.625, 2.571429, 0
*ELEMENT, TYPE=B32,ELSET=_L10-32v
 859, 301, 1787, 302
*NODE, NSET=N_LINK
 1788,  1.783364,  2.958612,  .0465
*ELEMENT, TYPE=B32,ELSET=_L10-32
 860,  1157,  1788,  244
*NODE, NSET=N_LINK
 1789, 1.875, 3, 0
*ELEMENT, TYPE=B32,ELSET=_L10-32v
 861, 243, 1789, 244
*NODE, NSET=N_LINK
 1790,  2.167084,  2.955187,  .0465
*ELEMENT, TYPE=B32,ELSET=_L10-32
 862,  1158,  1790,  274
*NODE, NSET=N_LINK
 1791, 2.25, 3, 0
*ELEMENT, TYPE=B32,ELSET=_L10-32v
 863, 273, 1791, 274
*NODE, NSET=N_LINK
 1792,  2.550804,  2.951762,  .0465
*ELEMENT, TYPE=B32,ELSET=_L10-32
 864,  1159,  1792,  304
*NODE, NSET=N_LINK
 1793, 2.625, 3, 0
*ELEMENT, TYPE=B32,ELSET=_L10-32v
 865, 303, 1793, 304
*NODE, NSET=N_LINK
 1794,  1.1719,  5.562164,  .0465
*ELEMENT, TYPE=B32,ELSET=_L10-32
 866,  1160,  1794,  196
*NODE, NSET=N_LINK
 1795, 1.125, 5.571428, 0
*ELEMENT, TYPE=B32,ELSET=_L10-32v
 867, 195, 1795, 196
*NODE, NSET=N_LINK
 1796,  1.9219,  5.562164,  .0465
*ELEMENT, TYPE=B32,ELSET=_L10-32
 868,  1161,  1796,  256
*NODE, NSET=N_LINK
 1797, 1.875, 5.571428, 0
*ELEMENT, TYPE=B32,ELSET=_L10-32v
 869, 255, 1797, 256
*NODE, NSET=N_LINK
 1798,  5.325,  2.138729,  .084
*ELEMENT, TYPE=B32,ELSET=_L10-32
 870,  1172,  1798,  510
*NODE, NSET=N_LINK
 1799, 5.25, 2.142857, 0
*ELEMENT, TYPE=B32,ELSET=_L10-32v
 871, 509, 1799, 510
*NODE, NSET=N_LINK
 1800,  5.70872,  2.135303,  .084
*ELEMENT, TYPE=B32,ELSET=_L10-32
 872,  1173,  1800,  540
*NODE, NSET=N_LINK
 1801, 5.625, 2.142857, 0
*ELEMENT, TYPE=B32,ELSET=_L10-32v
 873, 539, 1801, 540
*NODE, NSET=N_LINK
 1802,  4.939796,  2.057167,  .0465
*ELEMENT, TYPE=B32,ELSET=_L10-32
 874,  1162,  1802,  480
*NODE, NSET=N_LINK
 1803, 4.875, 2.142857, 0
*ELEMENT, TYPE=B32,ELSET=_L10-32v
 875, 479, 1803, 480
*NODE, NSET=N_LINK
 1804,  5.323517,  2.053741,  .0465
*ELEMENT, TYPE=B32,ELSET=_L10-32
 876,  1163,  1804,  510
*NODE, NSET=N_LINK
 1805,  5.707237,  2.050317,  .0465
*ELEMENT, TYPE=B32,ELSET=_L10-32
 877,  1164,  1805,  540
*NODE, NSET=N_LINK
 1806,  4.942763,  2.22714,  .0465
*ELEMENT, TYPE=B32,ELSET=_L10-32
 878,  1180,  1806,  480
*NODE, NSET=N_LINK
 1807,  5.326484,  2.223716,  .0465
*ELEMENT, TYPE=B32,ELSET=_L10-32
 879,  1181,  1807,  510
*NODE, NSET=N_LINK
 1808,  5.710203,  2.220291,  .0465
*ELEMENT, TYPE=B32,ELSET=_L10-32
 880,  1182,  1808,  540
*NODE, NSET=N_LINK
 1809,  7.452296,  2.574353,  .0465
*ELEMENT, TYPE=B32,ELSET=_L10-32
 881,  1183,  1809,  692
*NODE, NSET=N_LINK
 1810, 7.5, 2.571429, 0
*ELEMENT, TYPE=B32,ELSET=_L10-32v
 882, 691, 1810, 692
*NODE, NSET=N_LINK
 1811,  7.836017,  2.570928,  .0465
*ELEMENT, TYPE=B32,ELSET=_L10-32
 883,  1184,  1811,  722
*NODE, NSET=N_LINK
 1812, 7.875, 2.571429, 0
*ELEMENT, TYPE=B32,ELSET=_L10-32v
 884, 721, 1812, 722
*NODE, NSET=N_LINK
 1813,  8.219736,  2.567502,  .0465
*ELEMENT, TYPE=B32,ELSET=_L10-32
 885,  1185,  1813,  752
*NODE, NSET=N_LINK
 1814, 8.25, 2.571429, 0
*ELEMENT, TYPE=B32,ELSET=_L10-32v
 886, 751, 1814, 752
*NODE, NSET=N_LINK
 1815,  7.455264,  2.958612,  .0465
*ELEMENT, TYPE=B32,ELSET=_L10-32
 887,  1201,  1815,  694
*NODE, NSET=N_LINK
 1816, 7.5, 3, 0
*ELEMENT, TYPE=B32,ELSET=_L10-32v
 888, 693, 1816, 694
*NODE, NSET=N_LINK
 1817,  7.838984,  2.955187,  .0465
*ELEMENT, TYPE=B32,ELSET=_L10-32
 889,  1202,  1817,  724
*NODE, NSET=N_LINK
 1818, 7.875, 3, 0
*ELEMENT, TYPE=B32,ELSET=_L10-32v
 890, 723, 1818, 724
*NODE, NSET=N_LINK
 1819,  8.222704,  2.951762,  .0465
*ELEMENT, TYPE=B32,ELSET=_L10-32
 891,  1203,  1819,  754
*NODE, NSET=N_LINK
 1820,  3.840147,  2.574802,  .0465
*ELEMENT, TYPE=B32,ELSET=_L10-32
 892,  1204,  1820,  392
*NODE, NSET=N_LINK
 1821,  4.411366,  2.571378,  .0465
*ELEMENT, TYPE=B32,ELSET=_L10-32
 893,  1205,  1821,  452
*NODE, NSET=N_LINK
 1822, 4.5, 2.571429, 0
*ELEMENT, TYPE=B32,ELSET=_L10-32v
 894, 451, 1822, 452
*NODE, NSET=N_LINK
 1823,  4.795086,  2.567953,  .0465
*ELEMENT, TYPE=B32,ELSET=_L10-32
 895,  1206,  1823,  482
*NODE, NSET=N_LINK
 1824, 4.875, 2.571429, 0
*ELEMENT, TYPE=B32,ELSET=_L10-32v
 896, 481, 1824, 482
*NODE, NSET=N_LINK
 1825,  3.843113,  2.959062,  .0465
*ELEMENT, TYPE=B32,ELSET=_L10-32
 897,  1222,  1825,  394
*NODE, NSET=N_LINK
 1826,  4.414333,  2.955637,  .0465
*ELEMENT, TYPE=B32,ELSET=_L10-32
 898,  1223,  1826,  454
*NODE, NSET=N_LINK
 1827, 4.5, 3, 0
*ELEMENT, TYPE=B32,ELSET=_L10-32v
 899, 453, 1827, 454
*NODE, NSET=N_LINK
 1828,  4.798054,  2.952212,  .0465
*ELEMENT, TYPE=B32,ELSET=_L10-32
 900,  1224,  1828,  484
*NODE, NSET=N_LINK
 1829, 4.875, 3, 0
*ELEMENT, TYPE=B32,ELSET=_L10-32v
 901, 483, 1829, 484
*NODE, NSET=N_LINK
 1830,  4.2,  2.138729,  .084
*ELEMENT, TYPE=B32,ELSET=_L10-32
 902,  1235,  1830,  420
*NODE, NSET=N_LINK
 1831, 4.125, 2.142857, 0
*ELEMENT, TYPE=B32,ELSET=_L10-32v
 903, 419, 1831, 420
*NODE, NSET=N_LINK
 1832,  4.58372,  2.135303,  .084
*ELEMENT, TYPE=B32,ELSET=_L10-32
 904,  1236,  1832,  450
*NODE, NSET=N_LINK
 1833, 4.5, 2.142857, 0
*ELEMENT, TYPE=B32,ELSET=_L10-32v
 905, 449, 1833, 450
*NODE, NSET=N_LINK
 1834,  3.814796,  2.057167,  .0465
*ELEMENT, TYPE=B32,ELSET=_L10-32
 906,  1225,  1834,  390
*NODE, NSET=N_LINK
 1835, 3.75, 2.142857, 0
*ELEMENT, TYPE=B32,ELSET=_L10-32v
 907, 389, 1835, 390
*NODE, NSET=N_LINK
 1836,  4.198517,  2.053741,  .0465
*ELEMENT, TYPE=B32,ELSET=_L10-32
 908,  1226,  1836,  420
*NODE, NSET=N_LINK
 1837,  4.582237,  2.050317,  .0465
*ELEMENT, TYPE=B32,ELSET=_L10-32
 909,  1227,  1837,  450
*NODE, NSET=N_LINK
 1838,  3.817763,  2.22714,  .0465
*ELEMENT, TYPE=B32,ELSET=_L10-32
 910,  1243,  1838,  390
*NODE, NSET=N_LINK
 1839,  4.201484,  2.223716,  .0465
*ELEMENT, TYPE=B32,ELSET=_L10-32
 911,  1244,  1839,  420
*NODE, NSET=N_LINK
 1840,  4.585203,  2.220291,  .0465
*ELEMENT, TYPE=B32,ELSET=_L10-32
 912,  1245,  1840,  450
*NODE, NSET=N_LINK
 1841,  4.953696,  2.574802,  .0465
*ELEMENT, TYPE=B32,ELSET=_L10-32
 913,  1246,  1841,  482
*NODE, NSET=N_LINK
 1842,  5.337417,  2.571378,  .0465
*ELEMENT, TYPE=B32,ELSET=_L10-32
 914,  1247,  1842,  512
*NODE, NSET=N_LINK
 1843, 5.25, 2.571429, 0
*ELEMENT, TYPE=B32,ELSET=_L10-32v
 915, 511, 1843, 512
*NODE, NSET=N_LINK
 1844,  5.908637,  2.567953,  .0465
*ELEMENT, TYPE=B32,ELSET=_L10-32
 916,  1248,  1844,  572
*NODE, NSET=N_LINK
 1845, 6, 2.571429, 0
*ELEMENT, TYPE=B32,ELSET=_L10-32v
 917, 571, 1845, 572
*NODE, NSET=N_LINK
 1846,  4.956664,  2.959062,  .0465
*ELEMENT, TYPE=B32,ELSET=_L10-32
 918,  1264,  1846,  484
*NODE, NSET=N_LINK
 1847,  5.340384,  2.955637,  .0465
*ELEMENT, TYPE=B32,ELSET=_L10-32
 919,  1265,  1847,  514
*NODE, NSET=N_LINK
 1848, 5.25, 3, 0
*ELEMENT, TYPE=B32,ELSET=_L10-32v
 920, 513, 1848, 514
*NODE, NSET=N_LINK
 1849,  5.911603,  2.952212,  .0465
*ELEMENT, TYPE=B32,ELSET=_L10-32
 921,  1266,  1849,  574
*NODE, NSET=N_LINK
 1850,  7.49128,  2.142154,  .084
*ELEMENT, TYPE=B32,ELSET=_L10-32
 922,  1276,  1850,  690
*NODE, NSET=N_LINK
 1851, 7.5, 2.142857, 0
*ELEMENT, TYPE=B32,ELSET=_L10-32v
 923, 689, 1851, 690
*NODE, NSET=N_LINK
 1852,  7.875,  2.138729,  .084
*ELEMENT, TYPE=B32,ELSET=_L10-32
 924,  1277,  1852,  720
*NODE, NSET=N_LINK
 1853, 7.875, 2.142857, 0
*ELEMENT, TYPE=B32,ELSET=_L10-32v
 925, 719, 1853, 720
*NODE, NSET=N_LINK
 1854,  8.25872,  2.135303,  .084
*ELEMENT, TYPE=B32,ELSET=_L10-32
 926,  1278,  1854,  750
*NODE, NSET=N_LINK
 1855, 8.25, 2.142857, 0
*ELEMENT, TYPE=B32,ELSET=_L10-32v
 927, 749, 1855, 750
*NODE, NSET=N_LINK
 1856,  7.489797,  2.057167,  .0465
*ELEMENT, TYPE=B32,ELSET=_L10-32
 928,  1267,  1856,  690
*NODE, NSET=N_LINK
 1857,  7.873517,  2.053741,  .0465
*ELEMENT, TYPE=B32,ELSET=_L10-32
 929,  1268,  1857,  720
*NODE, NSET=N_LINK
 1858,  8.257236,  2.050317,  .0465
*ELEMENT, TYPE=B32,ELSET=_L10-32
 930,  1269,  1858,  750
*NODE, NSET=N_LINK
 1859,  7.492764,  2.22714,  .0465
*ELEMENT, TYPE=B32,ELSET=_L10-32
 931,  1285,  1859,  690
*NODE, NSET=N_LINK
 1860,  7.876483,  2.223716,  .0465
*ELEMENT, TYPE=B32,ELSET=_L10-32
 932,  1286,  1860,  720
*NODE, NSET=N_LINK
 1861,  8.260203,  2.220291,  .0465
*ELEMENT, TYPE=B32,ELSET=_L10-32
 933,  1287,  1861,  750
*NODE, NSET=N_LINK
 1862,  6.281929,  2.142154,  .084
*ELEMENT, TYPE=B32,ELSET=_L10-32
 934,  1297,  1862,  600
*NODE, NSET=N_LINK
 1863, 6.375, 2.142857, 0
*ELEMENT, TYPE=B32,ELSET=_L10-32v
 935, 599, 1863, 600
*NODE, NSET=N_LINK
 1864,  6.66565,  2.138729,  .084
*ELEMENT, TYPE=B32,ELSET=_L10-32
 936,  1298,  1864,  630
*NODE, NSET=N_LINK
 1865, 6.75, 2.142857, 0
*ELEMENT, TYPE=B32,ELSET=_L10-32v
 937, 629, 1865, 630
*NODE, NSET=N_LINK
 1866,  6.092947,  2.057167,  .0465
*ELEMENT, TYPE=B32,ELSET=_L10-32
 938,  1288,  1866,  570
*NODE, NSET=N_LINK
 1867, 6, 2.142857, 0
*ELEMENT, TYPE=B32,ELSET=_L10-32v
 939, 569, 1867, 570
*NODE, NSET=N_LINK
 1868,  6.664166,  2.053741,  .0465
*ELEMENT, TYPE=B32,ELSET=_L10-32
 940,  1289,  1868,  630
*NODE, NSET=N_LINK
 1869,  7.047887,  2.050317,  .0465
*ELEMENT, TYPE=B32,ELSET=_L10-32
 941,  1290,  1869,  660
*NODE, NSET=N_LINK
 1870, 7.125, 2.142857, 0
*ELEMENT, TYPE=B32,ELSET=_L10-32v
 942, 659, 1870, 660
*NODE, NSET=N_LINK
 1871,  6.283413,  2.22714,  .0465
*ELEMENT, TYPE=B32,ELSET=_L10-32
 943,  1306,  1871,  600
*NODE, NSET=N_LINK
 1872,  6.667133,  2.223716,  .0465
*ELEMENT, TYPE=B32,ELSET=_L10-32
 944,  1307,  1872,  630
*NODE, NSET=N_LINK
 1873,  7.050854,  2.220291,  .0465
*ELEMENT, TYPE=B32,ELSET=_L10-32
 945,  1308,  1873,  660
*NODE, NSET=N_LINK
 1874,  2.91628,  2.142154,  .084
*ELEMENT, TYPE=B32,ELSET=_L10-32
 946,  1319,  1874,  330
*NODE, NSET=N_LINK
 1875, 3, 2.142857, 0
*ELEMENT, TYPE=B32,ELSET=_L10-32v
 947, 329, 1875, 330
*NODE, NSET=N_LINK
 1876,  3.3,  2.138729,  .084
*ELEMENT, TYPE=B32,ELSET=_L10-32
 948,  1320,  1876,  360
*NODE, NSET=N_LINK
 1877, 3.375, 2.142857, 0
*ELEMENT, TYPE=B32,ELSET=_L10-32v
 949, 359, 1877, 360
*NODE, NSET=N_LINK
 1878,  2.914796,  2.057167,  .0465
*ELEMENT, TYPE=B32,ELSET=_L10-32
 950,  1310,  1878,  330
*NODE, NSET=N_LINK
 1879,  3.298517,  2.053741,  .0465
*ELEMENT, TYPE=B32,ELSET=_L10-32
 951,  1311,  1879,  360
*NODE, NSET=N_LINK
 1880,  3.682237,  2.050317,  .0465
*ELEMENT, TYPE=B32,ELSET=_L10-32
 952,  1312,  1880,  390
*NODE, NSET=N_LINK
 1881,  2.917763,  2.22714,  .0465
*ELEMENT, TYPE=B32,ELSET=_L10-32
 953,  1328,  1881,  330
*NODE, NSET=N_LINK
 1882,  3.301484,  2.223716,  .0465
*ELEMENT, TYPE=B32,ELSET=_L10-32
 954,  1329,  1882,  360
*NODE, NSET=N_LINK
 1883,  3.685204,  2.220291,  .0465
*ELEMENT, TYPE=B32,ELSET=_L10-32
 955,  1330,  1883,  390
*NODE, NSET=N_LINK
 1884,  1.78188,  2.142154,  .084
*ELEMENT, TYPE=B32,ELSET=_L10-32
 956,  1340,  1884,  240
*NODE, NSET=N_LINK
 1885, 1.875, 2.142857, 0
*ELEMENT, TYPE=B32,ELSET=_L10-32v
 957, 239, 1885, 240
*NODE, NSET=N_LINK
 1886,  2.1656,  2.138729,  .084
*ELEMENT, TYPE=B32,ELSET=_L10-32
 958,  1341,  1886,  270
*NODE, NSET=N_LINK
 1887, 2.25, 2.142857, 0
*ELEMENT, TYPE=B32,ELSET=_L10-32v
 959, 269, 1887, 270
*NODE, NSET=N_LINK
 1888,  1.592896,  2.057167,  .0465
*ELEMENT, TYPE=B32,ELSET=_L10-32
 960,  1331,  1888,  210
*NODE, NSET=N_LINK
 1889, 1.5, 2.142857, 0
*ELEMENT, TYPE=B32,ELSET=_L10-32v
 961, 209, 1889, 210
*NODE, NSET=N_LINK
 1890,  2.164116,  2.053741,  .0465
*ELEMENT, TYPE=B32,ELSET=_L10-32
 962,  1332,  1890,  270
*NODE, NSET=N_LINK
 1891,  2.547837,  2.050317,  .0465
*ELEMENT, TYPE=B32,ELSET=_L10-32
 963,  1333,  1891,  300
*NODE, NSET=N_LINK
 1892, 2.625, 2.142857, 0
*ELEMENT, TYPE=B32,ELSET=_L10-32v
 964, 299, 1892, 300
*NODE, NSET=N_LINK
 1893,  1.783364,  2.22714,  .0465
*ELEMENT, TYPE=B32,ELSET=_L10-32
 965,  1349,  1893,  240
*NODE, NSET=N_LINK
 1894,  2.167084,  2.223716,  .0465
*ELEMENT, TYPE=B32,ELSET=_L10-32
 966,  1350,  1894,  270
*NODE, NSET=N_LINK
 1895,  2.550804,  2.220291,  .0465
*ELEMENT, TYPE=B32,ELSET=_L10-32
 967,  1351,  1895,  300
*NODE, NSET=N_LINK
 1896,  .8344,  2.138729,  .084
*ELEMENT, TYPE=B32,ELSET=_L10-32
 968,  1362,  1896,  150
*NODE, NSET=N_LINK
 1897, .75, 2.142857, 0
*ELEMENT, TYPE=B32,ELSET=_L10-32v
 969, 149, 1897, 150
*NODE, NSET=N_LINK
 1898,  1.21812,  2.135303,  .084
*ELEMENT, TYPE=B32,ELSET=_L10-32
 970,  1363,  1898,  180
*NODE, NSET=N_LINK
 1899, 1.125, 2.142857, 0
*ELEMENT, TYPE=B32,ELSET=_L10-32v
 971, 179, 1899, 180
*NODE, NSET=N_LINK
 1900,  .4491965,  2.057167,  .0465
*ELEMENT, TYPE=B32,ELSET=_L10-32
 972,  1352,  1900,  120
*NODE, NSET=N_LINK
 1901, .375, 2.142857, 0
*ELEMENT, TYPE=B32,ELSET=_L10-32v
 973, 119, 1901, 120
*NODE, NSET=N_LINK
 1902,  .8329166,  2.053741,  .0465
*ELEMENT, TYPE=B32,ELSET=_L10-32
 974,  1353,  1902,  150
*NODE, NSET=N_LINK
 1903,  1.216636,  2.050317,  .0465
*ELEMENT, TYPE=B32,ELSET=_L10-32
 975,  1354,  1903,  180
*NODE, NSET=N_LINK
 1904,  .4521633,  2.22714,  .0465
*ELEMENT, TYPE=B32,ELSET=_L10-32
 976,  1370,  1904,  120
*NODE, NSET=N_LINK
 1905,  .8358834,  2.223716,  .0465
*ELEMENT, TYPE=B32,ELSET=_L10-32
 977,  1371,  1905,  150
*NODE, NSET=N_LINK
 1906,  1.407104,  2.220291,  .0465
*ELEMENT, TYPE=B32,ELSET=_L10-32
 978,  1372,  1906,  210
*NODE, NSET=N_LINK
 1907,  6.086046,  2.574802,  .0465
*ELEMENT, TYPE=B32,ELSET=_L10-32
 979,  1373,  1907,  572
*NODE, NSET=N_LINK
 1908,  6.657267,  2.571378,  .0465
*ELEMENT, TYPE=B32,ELSET=_L10-32
 980,  1374,  1908,  632
*NODE, NSET=N_LINK
 1909, 6.75, 2.571429, 0
*ELEMENT, TYPE=B32,ELSET=_L10-32v
 981, 631, 1909, 632
*NODE, NSET=N_LINK
 1910,  7.040987,  2.567953,  .0465
*ELEMENT, TYPE=B32,ELSET=_L10-32
 982,  1375,  1910,  662
*NODE, NSET=N_LINK
 1911, 7.125, 2.571429, 0
*ELEMENT, TYPE=B32,ELSET=_L10-32v
 983, 661, 1911, 662
*NODE, NSET=N_LINK
 1912,  6.089014,  2.959062,  .0465
*ELEMENT, TYPE=B32,ELSET=_L10-32
 984,  1391,  1912,  574
*NODE, NSET=N_LINK
 1913,  6.660233,  2.955637,  .0465
*ELEMENT, TYPE=B32,ELSET=_L10-32
 985,  1392,  1913,  634
*NODE, NSET=N_LINK
 1914, 6.75, 3, 0
*ELEMENT, TYPE=B32,ELSET=_L10-32v
 986, 633, 1914, 634
*NODE, NSET=N_LINK
 1915,  7.043953,  2.952212,  .0465
*ELEMENT, TYPE=B32,ELSET=_L10-32
 987,  1393,  1915,  664
*NODE, NSET=N_LINK
 1916,  4.52625,  3.452286,  .0465
*ELEMENT, TYPE=B32,ELSET=_L10-32
 988,  836,  1916,  456
*NODE, NSET=N_LINK
 1917, 4.5, 3.428571, 0
*ELEMENT, TYPE=B32,ELSET=_L10-32v
 989, 455, 1917, 456
*NODE, NSET=N_LINK
 1918,  4.91875,  3.452286,  .0465
*ELEMENT, TYPE=B32,ELSET=_L10-32
 990,  842,  1918,  486
*NODE, NSET=N_LINK
 1919, 4.875, 3.428571, 0
*ELEMENT, TYPE=B32,ELSET=_L10-32v
 991, 485, 1919, 486
*NODE, NSET=N_LINK
 1920,  7.5075,  3.452286,  .0465
*ELEMENT, TYPE=B32,ELSET=_L10-32
 992,  843,  1920,  696
*NODE, NSET=N_LINK
 1921, 7.5, 3.428571, 0
*ELEMENT, TYPE=B32,ELSET=_L10-32v
 993, 695, 1921, 696
*NODE, NSET=N_LINK
 1922,  7.9,  3.452286,  .0465
*ELEMENT, TYPE=B32,ELSET=_L10-32
 994,  849,  1922,  726
*NODE, NSET=N_LINK
 1923, 7.875, 3.428571, 0
*ELEMENT, TYPE=B32,ELSET=_L10-32v
 995, 725, 1923, 726
*NODE, NSET=N_LINK
 1924,  6.8256,  3.354735,  .0465
*ELEMENT, TYPE=B32,ELSET=_L10-32
 996,  850,  1924,  636
*NODE, NSET=N_LINK
 1925, 6.75, 3.428571, 0
*ELEMENT, TYPE=B32,ELSET=_L10-32v
 997, 635, 1925, 636
*NODE, NSET=N_LINK
 1926,  7.2181,  3.354735,  .0465
*ELEMENT, TYPE=B32,ELSET=_L10-32
 998,  856,  1926,  666
*NODE, NSET=N_LINK
 1927, 7.125, 3.428571, 0
*ELEMENT, TYPE=B32,ELSET=_L10-32v
 999, 665, 1927, 666
*NODE, NSET=N_LINK
 1928,  3.77625,  3.452286,  .0465
*ELEMENT, TYPE=B32,ELSET=_L10-32
 1000,  857,  1928,  396
*NODE, NSET=N_LINK
 1929, 3.75, 3.428571, 0
*ELEMENT, TYPE=B32,ELSET=_L10-32v
 1001, 395, 1929, 396
*NODE, NSET=N_LINK
 1930,  4.16875,  3.452286,  .0465
*ELEMENT, TYPE=B32,ELSET=_L10-32
 1002,  863,  1930,  426
*NODE, NSET=N_LINK
 1931, 4.125, 3.428571, 0
*ELEMENT, TYPE=B32,ELSET=_L10-32v
 1003, 425, 1931, 426
*NODE, NSET=N_LINK
 1932,  6.34845,  3.450336,  .069
*ELEMENT, TYPE=B32,ELSET=_L10-32
 1004,  866,  1932,  606
*NODE, NSET=N_LINK
 1933, 6.375, 3.428571, 0
*ELEMENT, TYPE=B32,ELSET=_L10-32v
 1005, 605, 1933, 606
*NODE, NSET=N_LINK
 1934,  6.30845,  3.450336,  .0465
*ELEMENT, TYPE=B32,ELSET=_L10-32
 1006,  864,  1934,  606
*NODE, NSET=N_LINK
 1935,  6.70095,  3.450336,  .0465
*ELEMENT, TYPE=B32,ELSET=_L10-32
 1007,  870,  1935,  636
*NODE, NSET=N_LINK
 1936,  5.24815,  3.452286,  .0465
*ELEMENT, TYPE=B32,ELSET=_L10-32
 1008,  892,  1936,  516
*NODE, NSET=N_LINK
 1937, 5.25, 3.428571, 0
*ELEMENT, TYPE=B32,ELSET=_L10-32v
 1009, 515, 1937, 516
*NODE, NSET=N_LINK
 1938,  5.64065,  3.452286,  .0465
*ELEMENT, TYPE=B32,ELSET=_L10-32
 1010,  898,  1938,  546
*NODE, NSET=N_LINK
 1939, 5.625, 3.428571, 0
*ELEMENT, TYPE=B32,ELSET=_L10-32v
 1011, 545, 1939, 546
*NODE, NSET=N_LINK
 1940,  3.02625,  3.452286,  .0465
*ELEMENT, TYPE=B32,ELSET=_L10-32
 1012,  899,  1940,  336
*NODE, NSET=N_LINK
 1941, 3, 3.428571, 0
*ELEMENT, TYPE=B32,ELSET=_L10-32v
 1013, 335, 1941, 336
*NODE, NSET=N_LINK
 1942,  3.41875,  3.452286,  .0465
*ELEMENT, TYPE=B32,ELSET=_L10-32
 1014,  905,  1942,  366
*NODE, NSET=N_LINK
 1943, 3.375, 3.428571, 0
*ELEMENT, TYPE=B32,ELSET=_L10-32v
 1015, 365, 1943, 366
*NODE, NSET=N_LINK
 1944,  .70125,  3.452286,  .0465
*ELEMENT, TYPE=B32,ELSET=_L10-32
 1016,  906,  1944,  156
*NODE, NSET=N_LINK
 1945, .75, 3.428571, 0
*ELEMENT, TYPE=B32,ELSET=_L10-32v
 1017, 155, 1945, 156
*NODE, NSET=N_LINK
 1946,  1.09375,  3.452286,  .0465
*ELEMENT, TYPE=B32,ELSET=_L10-32
 1018,  912,  1946,  186
*NODE, NSET=N_LINK
 1947, 1.125, 3.428571, 0
*ELEMENT, TYPE=B32,ELSET=_L10-32v
 1019, 185, 1947, 186
*NODE, NSET=N_LINK
 1948,  2.2669,  3.452286,  .0465
*ELEMENT, TYPE=B32,ELSET=_L10-32
 1020,  913,  1948,  276
*NODE, NSET=N_LINK
 1949, 2.25, 3.428571, 0
*ELEMENT, TYPE=B32,ELSET=_L10-32v
 1021, 275, 1949, 276
*NODE, NSET=N_LINK
 1950,  2.6594,  3.452286,  .0465
*ELEMENT, TYPE=B32,ELSET=_L10-32
 1022,  919,  1950,  306
*NODE, NSET=N_LINK
 1951, 2.625, 3.428571, 0
*ELEMENT, TYPE=B32,ELSET=_L10-32v
 1023, 305, 1951, 306
*NODE, NSET=N_LINK
 1952,  1.48875,  3.452286,  .0465
*ELEMENT, TYPE=B32,ELSET=_L10-32
 1024,  920,  1952,  216
*NODE, NSET=N_LINK
 1953, 1.5, 3.428571, 0
*ELEMENT, TYPE=B32,ELSET=_L10-32v
 1025, 215, 1953, 216
*NODE, NSET=N_LINK
 1954,  1.88125,  3.452286,  .0465
*ELEMENT, TYPE=B32,ELSET=_L10-32
 1026,  926,  1954,  246
*NODE, NSET=N_LINK
 1955, 1.875, 3.428571, 0
*ELEMENT, TYPE=B32,ELSET=_L10-32v
 1027, 245, 1955, 246
*NODE, NSET=N_LINK
 1956,  2.62125,  5.131529,  .079
*ELEMENT, TYPE=B32,ELSET=_L10-32
 1028,  831,  1956,  314
*NODE, NSET=N_LINK
 1957, 2.625, 5.142857, 0
*ELEMENT, TYPE=B32,ELSET=_L10-32v
 1029, 313, 1957, 314
*NODE, NSET=N_LINK
 1958,  2.99625,  5.131529,  .079
*ELEMENT, TYPE=B32,ELSET=_L10-32
 1030,  833,  1958,  344
*NODE, NSET=N_LINK
 1959, 3, 5.142857, 0
*ELEMENT, TYPE=B32,ELSET=_L10-32v
 1031, 343, 1959, 344
*NODE, NSET=N_LINK
 1960,  2.56125,  5.131529,  .0465
*ELEMENT, TYPE=B32,ELSET=_L10-32
 1032,  829,  1960,  314
*NODE, NSET=N_LINK
 1961,  3.05625,  5.131529,  .0465
*ELEMENT, TYPE=B32,ELSET=_L10-32
 1033,  835,  1961,  344
*NODE, NSET=N_LINK
 1962,  4.14565,  5.131529,  .0465
*ELEMENT, TYPE=B32,ELSET=_L10-32
 1034,  871,  1962,  434
*NODE, NSET=N_LINK
 1963, 4.125, 5.142857, 0
*ELEMENT, TYPE=B32,ELSET=_L10-32v
 1035, 433, 1963, 434
*NODE, NSET=N_LINK
 1964,  4.4869,  5.131529,  .079
*ELEMENT, TYPE=B32,ELSET=_L10-32
 1036,  874,  1964,  464
*NODE, NSET=N_LINK
 1965, 4.5, 5.142857, 0
*ELEMENT, TYPE=B32,ELSET=_L10-32v
 1037, 463, 1965, 464
*NODE, NSET=N_LINK
 1966,  4.82815,  5.131529,  .0465
*ELEMENT, TYPE=B32,ELSET=_L10-32
 1038,  877,  1966,  494
*NODE, NSET=N_LINK
 1967, 4.875, 5.142857, 0
*ELEMENT, TYPE=B32,ELSET=_L10-32v
 1039, 493, 1967, 494
*NODE, NSET=N_LINK
 1968,  3.35815,  5.131529,  .0465
*ELEMENT, TYPE=B32,ELSET=_L10-32
 1040,  878,  1968,  374
*NODE, NSET=N_LINK
 1969, 3.375, 5.142857, 0
*ELEMENT, TYPE=B32,ELSET=_L10-32v
 1041, 373, 1969, 374
*NODE, NSET=N_LINK
 1970,  3.79315,  5.131529,  .079
*ELEMENT, TYPE=B32,ELSET=_L10-32
 1042,  882,  1970,  404
*NODE, NSET=N_LINK
 1971, 3.75, 5.142857, 0
*ELEMENT, TYPE=B32,ELSET=_L10-32v
 1043, 403, 1971, 404
*NODE, NSET=N_LINK
 1972,  4.04065,  5.131529,  .0465
*ELEMENT, TYPE=B32,ELSET=_L10-32
 1044,  884,  1972,  434
*NODE, NSET=N_LINK
 1973,  5.29315,  5.131529,  .079
*ELEMENT, TYPE=B32,ELSET=_L10-32
 1045,  888,  1973,  524
*NODE, NSET=N_LINK
 1974, 5.25, 5.142857, 0
*ELEMENT, TYPE=B32,ELSET=_L10-32v
 1046, 523, 1974, 524
*NODE, NSET=N_LINK
 1975,  5.6344,  5.131529,  .0465
*ELEMENT, TYPE=B32,ELSET=_L10-32
 1047,  891,  1975,  554
*NODE, NSET=N_LINK
 1976, 5.625, 5.142857, 0
*ELEMENT, TYPE=B32,ELSET=_L10-32v
 1048, 553, 1976, 554
*NODE, NSET=N_LINK
 1977,  4.9519,  5.131529,  .0465
*ELEMENT, TYPE=B32,ELSET=_L10-32
 1049,  885,  1977,  494
*NODE, NSET=N_LINK
 1978,  2.6625,  .8368515,  .089
*ELEMENT, TYPE=B32,ELSET=_L10-32
 1050,  10,  1978,  294
*NODE, NSET=N_LINK
 1979, 2.625, .8571429, 0
*ELEMENT, TYPE=B32,ELSET=_L10-32v
 1051, 293, 1979, 294
*NODE, NSET=N_LINK
 1980,  2.6625,  1.270137,  .089
*ELEMENT, TYPE=B32,ELSET=_L10-32
 1052,  8,  1980,  296
*NODE, NSET=N_LINK
 1981, 2.625, 1.285714, 0
*ELEMENT, TYPE=B32,ELSET=_L10-32v
 1053, 295, 1981, 296
*NODE, NSET=N_LINK
 1982,  2.6625,  1.340217,  .0465
*ELEMENT, TYPE=B32,ELSET=_L10-32
 1054,  6,  1982,  296
*NODE, NSET=N_LINK
 1983,  2.6625,  .7667716,  .0465
*ELEMENT, TYPE=B32,ELSET=_L10-32
 1055,  12,  1983,  294
*NODE, NSET=N_LINK
 1984,  3.049999,  1.340217,  .0465
*ELEMENT, TYPE=B32,ELSET=_L10-32
 1056,  13,  1984,  326
*NODE, NSET=N_LINK
 1985, 3, 1.285714, 0
*ELEMENT, TYPE=B32,ELSET=_L10-32v
 1057, 325, 1985, 326
*NODE, NSET=N_LINK
 1986,  3.05,  .7667716,  .0465
*ELEMENT, TYPE=B32,ELSET=_L10-32
 1058,  19,  1986,  324
*NODE, NSET=N_LINK
 1987, 3, .8571429, 0
*ELEMENT, TYPE=B32,ELSET=_L10-32v
 1059, 323, 1987, 324
*NODE, NSET=N_LINK
 1988,  3.3875,  .8258014,  .089
*ELEMENT, TYPE=B32,ELSET=_L10-32
 1060,  24,  1988,  354
*NODE, NSET=N_LINK
 1989, 3.375, .8571429, 0
*ELEMENT, TYPE=B32,ELSET=_L10-32v
 1061, 353, 1989, 354
*NODE, NSET=N_LINK
 1990,  3.3875,  1.329167,  .0465
*ELEMENT, TYPE=B32,ELSET=_L10-32
 1062,  20,  1990,  356
*NODE, NSET=N_LINK
 1991, 3.375, 1.285714, 0
*ELEMENT, TYPE=B32,ELSET=_L10-32v
 1063, 355, 1991, 356
*NODE, NSET=N_LINK
 1992,  3.387501,  .7557214,  .0465
*ELEMENT, TYPE=B32,ELSET=_L10-32
 1064,  26,  1992,  354
*NODE, NSET=N_LINK
 1993,  3.70835,  .8258014,  .089
*ELEMENT, TYPE=B32,ELSET=_L10-32
 1065,  31,  1993,  384
*NODE, NSET=N_LINK
 1994, 3.75, .8571429, 0
*ELEMENT, TYPE=B32,ELSET=_L10-32v
 1066, 383, 1994, 384
*NODE, NSET=N_LINK
 1995,  3.708349,  1.329167,  .0465
*ELEMENT, TYPE=B32,ELSET=_L10-32
 1067,  27,  1995,  386
*NODE, NSET=N_LINK
 1996, 3.75, 1.285714, 0
*ELEMENT, TYPE=B32,ELSET=_L10-32v
 1068, 385, 1996, 386
*NODE, NSET=N_LINK
 1997,  3.70835,  .7557214,  .0465
*ELEMENT, TYPE=B32,ELSET=_L10-32
 1069,  33,  1997,  384
*BEAM SECTION, ELSET=_L10-32, MATERIAL=_LINK, SECTION = CIRC
 .19, .19
*BEAM SECTION, ELSET=_L10-32v, MATERIAL=_LINK, SECTION = CIRC
 .19, .19
 1, 0, 0
*NSET, NSET=BASE_BD2
 3 
 4 
 5 
 69 
 72 
 75 
 78 
*BOUNDARY
BASE_BD2,  1,  3
*NSET, NSET= N_ALL
N_GEN
**
*STEP
*STATIC
*DLOAD
E_ALL,GRAV,386.,0.,0.,-1.
*NODE FILE
U
*EL FILE
S
*END STEP
*STEP
*FREQUENCY
5,0.01
*EL PRINT,FREQUENCY=0
*NODE PRINT, FREQUENCY=0
*EL FILE
s
*NODE FILE
u
*END STEP
