**Single Bolt model
*NODE
         2,  -100.0         ,  0.0            ,  7.76000023     
         3,  -98.7050018    ,  0.0            ,  7.76000023     
         4,  -97.4100037    ,  0.0            ,  7.76000023     
         5,  -96.1149979    ,  0.0            ,  7.76000023     
         6,  -94.8199997    ,  0.0            ,  7.76000023     
         7,  -94.9766312    ,  1.26419055     ,  7.76000023     
         8,  -95.4816895    ,  2.53323579     ,  7.76000023     
         9,  -96.3371887    ,  3.66281319     ,  7.76000023     
        10,  -97.4667664    ,  4.51830912     ,  7.76000023     
        11,  -98.7358093    ,  5.0233674      ,  7.76000023     
        12,  -100.0         ,  5.17999983     ,  7.76000023     
        13,  -100.0         ,  3.88499999     ,  7.76000023     
        14,  -100.0         ,  2.58999991     ,  7.76000023     
        15,  -100.0         ,  1.29499996     ,  7.76000023     
        16,  -96.8574829    ,  3.11674213     ,  7.76000023     
        17,  -96.4937897    ,  2.17920303     ,  7.76000023     
        18,  -96.2315369    ,  1.11850011     ,  7.76000023     
        19,  -97.7908554    ,  3.47852921     ,  7.76000023     
        20,  -98.8612595    ,  3.74901509     ,  7.76000023     
        21,  -97.6595383    ,  2.30268192     ,  7.76000023     
** ... 22879 like lines cut
**HWCOLOR COMP          6    25
*ELEMENT,TYPE=C3D8,ELSET=B
         1,        16,         9,         8,        17,       186,       179,       178,
       187
         2,        17,         8,         7,        18,       187,       178,       177,
       188
         3,        18,         7,         6,         5,       188,       177,       176,
       175
         4,        16,        19,        10,         9,       186,       189,       180,
       179
         5,        19,        20,        11,        10,       189,       190,       181,
       180
         6,        20,        13,        12,        11,       190,       183,       182,
       181
         7,        16,        17,        21,        19,       186,       187,       191,
       189
         8,        17,        18,        22,        21,       187,       188,       192,
       191
         9,        18,         5,         4,        22,       188,       175,       174,
       192
        10,        19,        21,        23,        20,       189,       191,       193,
       190
** ... 5404 like lines cut
**HWCOLOR COMP          7    49
*ELEMENT,TYPE=C3D8,ELSET=W
     61897,      3366,      3365,      3364,      3367,      3486,      3485,      3484,
      3487
     61898,      3367,      3364,      3363,      3368,      3487,      3484,      3483,
      3488
     61899,      3368,      3363,      3362,      3369,      3488,      3483,      3482,
      3489
     61900,      3369,      3362,      3361,      3370,      3489,      3482,      3481,
      3490
     61901,      3370,      3361,      3360,      3371,      3490,      3481,      3480,
      3491
     61902,      3371,      3360,      3359,      3372,      3491,      3480,      3479,
      3492
     61903,      3380,      3379,      3378,      3381,      3500,      3499,      3498,
      3501
     61904,      3381,      3378,      3377,      3382,      3501,      3498,      3497,
      3502
     61905,      3382,      3377,      3376,      3383,      3502,      3497,      3496,
      3503
     61906,      3383,      3376,      3375,      3384,      3503,      3496,      3495,
      3504
** ... 364 like lines cut
**HWCOLOR COMP          8    37
*ELEMENT,TYPE=C3D8,ELSET=P2
     42072,     24339,     24428,     24429,     24341,      8061,      8063,      8066,
      8058
     42071,     24341,     24429,     24426,     24335,      8058,      8066,      8056,
      8054
     42070,     24336,     24427,     24428,     24339,      8052,      8050,      8063,
      8061
     42069,     24344,     24425,     24427,     24336,      8048,      8042,      8050,
      8052
     42068,     24335,     24426,     24424,     24342,      8054,      8056,      8046,
      8062
     42067,     24357,     24406,     24425,     24344,      8064,      8065,      8042,
      8048
     42066,     24342,     24424,     24423,     24340,      8062,      8046,      8057,
      8055
     42065,     24340,     24423,     24422,     24337,      8055,      8057,      8053,
      8051
     42064,     24337,     24422,     24421,     24343,      8051,      8053,      8049,
      8047
     42063,     24343,     24421,     24420,     24338,      8047,      8049,      8041,
      8045
** ... 15916 like lines cut
**HWCOLOR COMP          9    59
*ELEMENT,TYPE=C3D8,ELSET=P1
     62281,     73258,     73265,     73270,     73241,     73090,     73097,     73102,
     73073
     62282,     73241,     73270,     73272,     73242,     73073,     73102,     73104,
     73074
     62283,     73242,     73272,     73274,     73243,     73074,     73104,     73106,
     73075
     62284,     73243,     73274,     73276,     73244,     73075,     73106,     73108,
     73076
     62285,     73244,     73276,     73278,     73245,     73076,     73108,     73110,
     73077
     62286,     73245,     73278,     73280,     73246,     73077,     73110,     73112,
     73078
     62287,     73247,     73281,     73268,     73252,     73079,     73113,     73100,
     73084
     62288,     73246,     73280,     73284,     73248,     73078,     73112,     73116,
     73080
     62289,     73249,     73285,     73281,     73247,     73081,     73117,     73113,
     73079
     62290,     73248,     73284,     73290,     73251,     73080,     73116,     73122,
     73083
** ... 16492 like lines cut
**HMTAG 1,72471,1,3,Pretension_Node__72471,
**HMTAG 2,72472,1,4,Pretension_Node__72472,
*SOLID SECTION, ELSET=B, MATERIAL=M_STEEL
,
*SOLID SECTION, ELSET=P1, MATERIAL=M_STEEL
,
*SOLID SECTION, ELSET=P2, MATERIAL=M_STEEL
,
*SOLID SECTION, ELSET=W, MATERIAL=M_STEEL
,
*ELSET, ELSET=B01-S3_S4
       469,       470,       471,       484,       485,       486,       511,       512,
       513,       526,       527,       528,       529,       530,       531,       544,
       545,       546,       571,       572,       573,       586,       587,       588,
       589,       590,       591,       604,       605,       606,       631,       632,
       633,       646,       647,       648,       649,       650,       651,       664,
       665,       666,       691,       692,       693,       706,       707,       708,
       709,       710,       711,       724,       725,       726,       751,       752,
       753,       766,       767,       768,       769,       770,       771,       784,
       785,       786,       811,       812,       813,       826,       827,       828
*ELSET, ELSET=B01-S3_S5
       472,       473,       474,       487,       488,       489,       499,       500,
       501,       514,       515,       516,       532,       533,       534,       547,
       548,       549,       559,       560,       561,       574,       575,       576,
       592,       593,       594,       607,       608,       609,       619,       620,
       621,       634,       635,       636,       652,       653,       654,       667,
       668,       669,       679,       680,       681,       694,       695,       696,
       712,       713,       714,       727,       728,       729,       739,       740,
       741,       754,       755,       756,       772,       773,       774,       787,
       788,       789,       799,       800,       801,       814,       815,       816
*ELSET, ELSET=B02-H2_S1
*ELSET, ELSET=B02-S3_S4
*ELSET, ELSET=B02-S3_S5
*ELSET, ELSET=Bolt1_Master_2_S2
*ELSET, ELSET=Bolt1_Master_2_S4
*ELSET, ELSET=Bolt1_Slave_2_S1
     41071,     41072,     41073,     41074,     41075,     41076,     41077,     41078,
     41079,     41092,     41093,     41094,     41095,     41096,     41097,     41098,
     41099,     41100,     41101,     41102,     41103,     41116,     41117,     41118,
     41119,     41120,     41121,     41122,     41123,     41124,     41125,     41126,
     41127,     41128,     41129,     41130,     41131,     41132,     41133,     41134,
     41135,     41136,     41137,     41138,     41139,     41141,     41142,     41143,
     41144,     41145,     41146,     41147,     41148,     41149,     41150,     41151,
     41152,     41166,     41167,     41168,     41169,     41170,     41171,     41172,
     41173,     41174,     41175,     41176,     41177,     41189,     41190,     41191,
     41192,     41193,     41194,     41195,     41196,     41197,     41198,     41199,
     41200,     41201,     41202,     41203,     41204,     41205,     41206,     41207,
     41208,     41209,     41210,     41211,     41212,     41225,     41226,     41227,
     41228,     41229,     41230,     41231,     41232,     41233,     41234,     41235,
     41236,     41237,     41238,     41239,     41240,     41241,     41242,     41243,
     41244,     41245,     41246,     41247,     41248,     41261,     41262,     41263,
     41264,     41265,     41266,     41267,     41268,     41269,     41270,     41271,
     41272,     41273,     41286,     41287,     41288,     41301,     41302,     41303,
     41304,     41305,     41306,     41307,     41308,     41309,     41310,     41311,
     41312,     41313,     41386,     41387,     41388,     41389,     41390,     41391,
     41392,     41393,     41394,     41395,     41396,     41397,     41398,     41399,
** ... 63 like lines cut
**ELSET, ELSET=Bolt2_Master_2_S2
**ELSET, ELSET=Bolt2_Master_2_S5
**ELSET, ELSET=Bolt2_Slave_2_S1
**-----Boundary condition
*NSET, NSET=BC1
*NSET, NSET=NEW_BC
 83974, 83975, 83976, 83977, 83978, 83979, 83980, 83981, 83982, 83983, 83984, 84217, 84260, 84261, 84262, 84263
 84264, 84265, 84266, 84267, 84268, 84269, 84270, 84271, 84272, 84273, 84274, 84275, 84276, 84277, 84278, 84279
 84280, 84281, 84282, 84283, 84284, 84323, 84352, 84353, 84354, 84355, 84356, 84357, 84358, 84359, 84360, 84361
 84362, 84363, 84364, 84365, 85829, 85830, 85831, 85832, 85865, 85866, 85867, 85868, 85869, 85870, 85871, 85872
 85894, 85899, 85900, 85901, 85902, 85903, 85904, 85905, 85907, 85908, 85909, 85910, 85911, 85912, 85913, 85914
 85925, 85926, 85927, 85928, 85929, 85949, 85950, 85951, 85964, 86094, 86161, 86162, 86173, 86174, 86175, 86176
 86177, 86178, 86179, 86218, 86221, 86268
*ELSET, ELSET=B01-H2_S2, GENERATE
       889,       972,         1
**ELSET, ELSET=B01-M3_S1, GENERATE
**      5617,      5760,         1
*ELSET, ELSET=B01-PR_S1, GENERATE
      1669,      1752,         1
*ELSET, ELSET=B01-T2_S1, GENERATE
      2653,      2712,         1
**ELSET, ELSET=B02-M3_S1, GENERATE
**     17929,     18072,         1
**ELSET, ELSET=B02-PR_S2, GENERATE
**      4297,      4380,         1
**ELSET, ELSET=B02-T2_S2, GENERATE
**     5305,      5364,         1
*ELSET, ELSET=Bolt1_Master_0_S1, GENERATE
     61897,     61992,         1
*ELSET, ELSET=Bolt1_Master_1_S2, GENERATE
     30979,     31050,         1
**ELSET, ELSET=Bolt1_Master_2_S5, GENERATE
**      5737,      5760,         1
*ELSET, ELSET=Bolt1_Slave_0_S2, GENERATE
       397,       468,         1
*ELSET, ELSET=Bolt1_Slave_1_S2, GENERATE
     61993,     62088,         1
**ELSET, ELSET=Bolt2_Master_0_S1, GENERATE
**     62089,     62184,         1
**ELSET, ELSET=Bolt2_Master_1_S2, GENERATE
**53095,     53166,         1
**ELSET, ELSET=Bolt2_Master_2_S4, GENERATE
**     18049,     18072,         1
**ELSET, ELSET=Bolt2_Slave_0_S2, GENERATE
**      3109,      3180,         1
**ELSET, ELSET=Bolt2_Slave_1_S2, GENERATE
**    62185,     62280,         1
**
**>>>>>>>>>>>>>>>>>>>>>>>>>>>>>>>>>>>>>>
**HM_FORMULA_SET
*NSET, NSET=BC2, GENERATE
     72120,     72470,         1
**-----Element set creation
**-----Material assignment
** Section: Section-2-PLATE01
** Section: Section-3-PLATE02
** Section: Section-4-WASHER
*MATERIAL, NAME=M_STEEL
*DENSITY
7.8330E-09,0.0       
*ELASTIC, TYPE = ISOTROPIC
200000.0  ,0.3       ,0.0       
*SURFACE INTERACTION, NAME = BOLTED_JOINTS
1.0       ,
*SURFACE BEHAVIOR, PRESSURE-OVERCLOSURE = LINEAR
1000000.0 ,
*FRICTION
0.1       ,1000.0    ,0.0       ,0.0       
** Interaction: BOLTED_JOINTS-3
**HMNAME GROUPS         24 HM_ContactPair_BOLTED_JOINTS
**CONTACT PAIR, INTERACTION=BOLTED_JOINTS, ADJUST=0.0, TYPE=SURFACE TO SURFACE, SMALL SLIDING
**B01-S3,B01-M3
** Interaction: BOLTED_JOINTS-4
**HMNAME GROUPS         25 HM_ContactPair_BOLTED_JOINTS:1
*Elset, elset=_Bottom_Plate_Master_S2
 65182, 65183, 65184, 65185, 65186, 65187, 65188, 65189, 65190, 65191, 65192, 65193, 65194, 65195, 65196, 65197
 65198, 65199, 65200, 65201, 65202, 65203, 65204, 65205, 65206, 65207, 65208, 65209, 65210, 65211, 65212, 65213
 65214, 65215, 65216, 65217, 65218, 65219, 65220, 65221, 65222, 65223, 65224, 65225, 65226, 65227, 65228, 65229
 65230, 65231, 65232, 65233, 65234, 65235, 65236, 65237, 65238, 65239, 65240, 65241, 65242, 65243, 65244, 65245
 65246, 65247, 65248, 65249, 65250, 65251, 65252, 65253, 65254, 65255, 65256, 65257, 65258, 65259, 65260, 65261
 65262, 65263, 65264, 65265, 65266, 65267, 65268, 65269, 65270, 65271, 65272, 65273, 65274, 65275, 65276, 65277
 65278, 65279, 65280, 65281, 65282, 65283, 65284, 65285, 65286, 65287, 65288, 65289, 65290, 65291, 65292, 65293
 65294, 65295, 65296, 65297, 65298, 65299, 65300, 65301, 65302, 65303, 65304, 65305, 65306, 65307, 65308, 65309
 65310, 65311, 65312, 65313, 65314, 65381, 65382, 65383, 65384, 65385, 65386, 65387, 65388, 65389, 65390, 65391
 65392, 65404, 65405, 65417, 65418, 65419, 65420, 65421, 65422, 65423, 65424, 65425, 65437, 65438, 65439, 65440
 65441, 65442, 65443, 65444, 65445, 65446, 65447, 65448, 65449, 65450, 65451, 65452, 65453, 65454, 65455, 65456
 65457, 65458, 65470, 65471, 65472, 65473, 65474, 65475, 65476, 65477, 65478, 65479, 65480, 65481, 65482, 65483
 65484, 65485, 65486, 65487, 65488, 65489, 65490, 65491, 65500, 65501, 65502, 65503, 65504, 65505, 65506, 65507
 65508, 65509, 65510, 65523, 65524, 65525, 65526, 65527, 65528, 65529, 65530, 65531, 65532, 65533, 65536, 65537
 65538, 65539, 65540, 65541, 65542, 65543, 65544, 65545, 65558, 65559, 65560, 65561, 65562, 65563, 65564, 65565
 65566, 65567, 65568, 65569, 65570, 65571, 65572, 65573, 65574, 65575, 65576, 65577, 65578, 65579, 65580, 65581
 65582, 65583, 65584, 65585, 65586, 65587, 65588, 65589, 65601, 65602, 65603, 65604, 65605, 65606, 65607, 65609
 65610, 65611, 65612, 65613, 65614, 65615, 65616, 65617, 65618, 65619, 65620, 65621, 65632, 65636, 65637, 65638
 65639, 65640, 65641, 65642, 65643, 65644, 65645, 65646, 67972, 67973, 67974, 67975, 67976, 67977, 67978, 67979
 67980, 67981, 67982, 67983, 67984, 67985, 67986, 67987, 67988, 67989, 67990, 67991, 67992, 67993, 67994, 67995
** ... 17 like lines cut
*Elset, elset=_Bottom_Plate_Master_S4
 62305, 62306, 62307, 62308, 62309, 62310, 62311, 62312, 62313, 62314, 62315, 62316, 62317, 62318, 62319, 62320
 62321, 62322, 62323, 62324, 62325, 62326, 62327, 62328, 62449, 62450, 62451, 62452, 62453, 62454, 62455, 62456
 62457, 62458, 62459, 62460, 62461, 62462, 62463, 62464, 62465, 62466, 62467, 62468, 62469, 62470, 62471, 62472
 62713, 62714, 62715, 62716, 62717, 62718, 62719, 62720, 62721, 62722, 62723, 62724, 62725, 62726, 62727, 62728
 62729, 62730, 62731, 62732, 62733, 62734, 62735, 62736
*Elset, elset=_Bottom_Plate_Master_S5, generate
 62593,  62616,      1
*Surface, type=ELEMENT, name=Bottom_Plate_Master
_Bottom_Plate_Master_S2, S2
_Bottom_Plate_Master_S4, S4
_Bottom_Plate_Master_S5, S5
*Elset, elset=_Top_Plate_Slave_S1
 41071, 41072, 41073, 41074, 41075, 41076, 41077, 41078, 41079, 41092, 41093, 41094, 41095, 41096, 41097, 41098
 41099, 41100, 41101, 41102, 41103, 41116, 41117, 41118, 41119, 41120, 41121, 41122, 41123, 41124, 41125, 41126
 41127, 41128, 41129, 41130, 41131, 41132, 41133, 41134, 41135, 41136, 41137, 41138, 41139, 41141, 41142, 41143
 41144, 41145, 41146, 41147, 41148, 41149, 41150, 41151, 41152, 41166, 41167, 41168, 41169, 41170, 41171, 41172
 41173, 41174, 41175, 41176, 41177, 41189, 41190, 41191, 41192, 41193, 41194, 41195, 41196, 41197, 41198, 41199
 41200, 41201, 41202, 41203, 41204, 41205, 41206, 41207, 41208, 41209, 41210, 41211, 41212, 41225, 41226, 41227
 41228, 41229, 41230, 41231, 41232, 41233, 41234, 41235, 41236, 41237, 41238, 41239, 41240, 41241, 41242, 41243
 41244, 41245, 41246, 41247, 41248, 41261, 41262, 41263, 41264, 41265, 41266, 41267, 41268, 41269, 41270, 41271
 41272, 41273, 41286, 41287, 41288, 41301, 41302, 41303, 41304, 41305, 41306, 41307, 41308, 41309, 41310, 41311
 41312, 41313, 41386, 41387, 41388, 41389, 41390, 41391, 41392, 41393, 41394, 41395, 41396, 41397, 41398, 41399
 41400, 41401, 41402, 41403, 41404, 41405, 41406, 41407, 41408, 41409, 41410, 41411, 41412, 41413, 41414, 41415
 41416, 41417, 41418, 41419, 41420, 41421, 41422, 41423, 41424, 41425, 41426, 41427, 41428, 41429, 41430, 41431
 41432, 41433, 41434, 41435, 41436, 41437, 41438, 41439, 41440, 41441, 41442, 41443, 41444, 41445, 41446, 41447
 41448, 41449, 41450, 41451, 41452, 41453, 41454, 41455, 41456, 41457, 41458, 41459, 41460, 41461, 41462, 41463
 41464, 41465, 41466, 41467, 41468, 41469, 41470, 41471, 41472, 41473, 41474, 41475, 41476, 41477, 41478, 41479
 41480, 41481, 41482, 41483, 41484, 41485, 41486, 41487, 41488, 41489, 41490, 41491, 41492, 41493, 41494, 41495
 41496, 41497, 41498, 41499, 41500, 41501, 41502, 41503, 41504, 41505, 41506, 41507, 41508, 41509, 41510, 41511
 41512, 41513, 41514, 41515, 41516, 41517, 41518, 41519, 41520, 41521, 41522, 41523, 41524, 41525, 41526, 41527
 41528, 41529, 41530, 41531, 41532, 41533, 41534, 41535, 41536, 41537, 41538, 41539, 41540, 41541, 41542, 41543
 41557, 41558, 41559, 41560, 41561, 41562, 41563, 41564, 41565, 41566, 41567, 41568, 41569, 41570, 41571, 41572
** ... 22 like lines cut
*Surface, type=ELEMENT, name=Top_Plate_Slave
_Top_Plate_Slave_S1, S1
*CONTACT PAIR, INTERACTION=BOLTED_JOINTS, ADJUST=0.0, TYPE=SURFACE TO SURFACE, SMALL SLIDING
Bolt1_Slave_0,Bolt1_Master_0
** Interaction: BOLTED_JOINTS-5
**HMNAME GROUPS         26 HM_ContactPair_BOLTED_JOINTS:2
*CONTACT PAIR, INTERACTION=BOLTED_JOINTS, ADJUST=0.0, TYPE=SURFACE TO SURFACE, SMALL SLIDING
Bolt1_Slave_1,Bolt1_Master_1
** Interaction: BOLTED_JOINTS-6
**HMNAME GROUPS         27 HM_ContactPair_BOLTED_JOINTS:3
*CONTACT PAIR, INTERACTION=BOLTED_JOINTS, ADJUST=0.0, TYPE=SURFACE TO SURFACE, SMALL SLIDING
Top_Plate_Slave,Bottom_Plate_Master
**HMNAME GROUPS         28 HM_ContactPair_BOLTED_JOINTS:4
**CONTACT PAIR, INTERACTION=BOLTED_JOINTS, ADJUST=0.0, TYPE=SURFACE TO SURFACE, SMALL SLIDING
**Bolt2_Slave_2,Bolt2_Master_2
***********************************************
** Interaction: BOLTED_JOINTS-2
**HMNAME GROUPS         23 HM_ContactPair_BOLTED_JOINTS:5
**CONTACT PAIR, INTERACTION=BOLTED_JOINTS, ADJUST=0.0, TYPE=SURFACE TO SURFACE, SMALL SLIDING
**Bolt1_Slave_0,Bolt1_Master_0
**-----
**---------------------------------------
*****************************************
*SURFACE, NAME = B01-H2, TYPE = ELEMENT
B01-H2_S2,S2
**-----Bolt1, Master Surface 0-----------
*****************************************
*SURFACE, NAME = Bolt1_Master_0, TYPE = ELEMENT
Bolt1_Master_0_S1,S1
**-----Bolt1, Master Surface 1-----------
*****************************************
*SURFACE, NAME = Bolt1_Master_1, TYPE = ELEMENT
Bolt1_Master_1_S2,S2
**-----Bolt1, Master Surface 2-----------
*****************************************
**SURFACE, NAME = Bolt1_Master_2, TYPE = ELEMENT
**Bolt1_Master_2_S2,S2
**Bolt1_Master_2_S4,S4
**Bolt1_Master_2_S5,S5
**-----Master Surface 4
*****************************************
**SURFACE, NAME = B01-M3, TYPE = ELEMENT
**B01-M3_S1,S1
**-----Pretension surface 1
*SURFACE, NAME = B01-PR, TYPE = ELEMENT
B01-PR_S1,S1
**-----Slave surface 1
*SURFACE, NAME = Bolt1_Slave_0, TYPE = ELEMENT
Bolt1_Slave_0_S2,S2
**-----Slave surface 2
*SURFACE, NAME = Bolt1_Slave_1, TYPE = ELEMENT
Bolt1_Slave_1_S2,S2
*SURFACE, NAME = Bolt1_Slave_2, TYPE = ELEMENT
Bolt1_Slave_2_S1,S1
*SURFACE, NAME = B01-S3, TYPE = ELEMENT
B01-S3_S4,S4
B01-S3_S5,S5
*SURFACE, NAME = B01-T2, TYPE = ELEMENT
B01-T2_S1,S1
**SURFACE, NAME = B02-H2, TYPE = ELEMENT
**B02-H2_S1,S1
**SURFACE, NAME = Bolt2_Master_0, TYPE = ELEMENT
**Bolt2_Master_0_S1,S1
**SURFACE, NAME = Bolt2_Master_1, TYPE = ELEMENT
**Bolt2_Master_1_S2,S2
**SURFACE, NAME = Bolt2_Master_2, TYPE = ELEMENT
**Bolt2_Master_2_S2,S2
**Bolt2_Master_2_S4,S4
**Bolt2_Master_2_S5,S5
**SURFACE, NAME = B02-M3, TYPE = ELEMENT
**B02-M3_S1,S1
**SURFACE, NAME = B02-PR, TYPE = ELEMENT
**B02-PR_S2,S2
***SURFACE, NAME = Bolt2_Slave_0, TYPE = ELEMENT
**Bolt2_Slave_0_S2,S2
**SURFACE, NAME = Bolt2_Slave_1, TYPE = ELEMENT
**Bolt2_Slave_1_S2,S2
**SURFACE, NAME = Bolt2_Slave_2, TYPE = ELEMENT
**Bolt2_Slave_2_S1,S1
**********************************************
**SURFACE, NAME = B02-S3, TYPE = ELEMENT
**B02-S3_S4,S4
**B02-S3_S5,S5
**SURFACE, NAME = B02-T2, TYPE = ELEMENT
**B02-T2_S2,S2
** Pre-Tension Section for Bolt Load: SURFBOLTLOAD-1
**HMNAME GROUPS         31 31
**PRE-TENSION SECTION, NODE=72471, SURFACE=B02-PR
**0.0       ,0.0       ,-1.0      
** Pre-Tension Section for Bolt Load: SURFBOLTLOAD-2
**HMNAME GROUPS         32 32
*PRE-TENSION SECTION, NODE=72472, SURFACE=B01-PR
0.0       ,0.0       ,1.0       
** Constraint: BOLT_TIE-1
********************************************************
*Elset, elset=_Slave_Thread_S4
 469, 470, 471, 484, 485, 486, 511, 512, 513, 526, 527, 528, 529, 530, 531, 544
 545, 546, 571, 572, 573, 586, 587, 588, 589, 590, 591, 604, 605, 606, 631, 632
 633, 646, 647, 648, 649, 650, 651, 664, 665, 666, 691, 692, 693, 706, 707, 708
 709, 710, 711, 724, 725, 726, 751, 752, 753, 766, 767, 768, 769, 770, 771, 784
 785, 786, 811, 812, 813, 826, 827, 828
*Elset, elset=_Slave_Thread_S5
 472, 473, 474, 487, 488, 489, 499, 500, 501, 514, 515, 516, 532, 533, 534, 547
 548, 549, 559, 560, 561, 574, 575, 576, 592, 593, 594, 607, 608, 609, 619, 620
 621, 634, 635, 636, 652, 653, 654, 667, 668, 669, 679, 680, 681, 694, 695, 696
 712, 713, 714, 727, 728, 729, 739, 740, 741, 754, 755, 756, 772, 773, 774, 787
 788, 789, 799, 800, 801, 814, 815, 816
*Surface, type=ELEMENT, name=Slave_Thread
_Slave_Thread_S4, S4
_Slave_Thread_S5, S5
*Elset, elset=_Master_Thread_S1, generate
 62473,  62616,      1
*Surface, type=ELEMENT, name=Master_Thread
_Master_Thread_S1, S1
** Constraint: BOLT_TIE-2
*TIE, NAME = BOLT_TIE-1, POSITION TOLERANCE = 1.0     
Slave_Thread,Master_Thread
********************************************************
**TIE, NAME = BOLT_TIE-2, POSITION TOLERANCE = 1.0     
**B02-S3,B02-M3
**HWNAME LOADCOL          1 HM_IC_Load_Cols_1
**HWCOLOR LOADCOL          1     3
*BOUNDARY
NEW_BC,1,3,
**HMNAME LOADSTEP          1 HM_Step_1
********************************************************
*STEP, INC =          100
*STATIC
0.1       ,1.0       ,          ,          
**HWNAME LOADCOL          2 HM_Load_Cols_2
**HWCOLOR LOADCOL          2     4
*CLOAD
     72472,1,52000.0        
*NODE FILE
U
*EL FILE
S,E
*CONTACT FILE
CDIS,CSTR,CELS 
*CONTACT PRINT, FREQUENCY = 10, TOTALS = YES
CSTRESS, CDISP,CELS
*PRINT, CONTACT = YES
*END STEP
**HMNAME LOADSTEP          2 HM_Step_2
*****
