** Beulplatte zu Testzwecken
**

*NODE, NSET=Nall
1, 0.000000, 0.000000, 0.000000
2, 8.000000, 0.000000, 0.000000
3, 8.000000, 8.000000, 0.000000
4, 0.000000, 8.000000, 0.000000
5, 4.000000, 0.000000, 0.000000
6, 8.000000, 4.000000, 0.000000
7, 4.000000, 8.000000, 0.000000
8, 0.000000, 4.000000, 0.000000
9, 16.000000, 0.000000, 0.000000
10, 16.000000, 8.000000, 0.000000
11, 12.000000, 0.000000, 0.000000
12, 16.000000, 4.000000, 0.000000
13, 12.000000, 8.000000, 0.000000
14, 24.000000, 0.000000, 0.000000
15, 24.000000, 8.000000, 0.000000
16, 20.000000, 0.000000, 0.000000
17, 24.000000, 4.000000, 0.000000
18, 20.000000, 8.000000, 0.000000
19, 32.000000, 0.000000, 0.000000
20, 32.000000, 8.000000, 0.000000
** ... 45 like lines cut

*ELEMENT, TYPE=S8R, ELSET=Eall
1, 1, 2, 3, 4, 5, 6, 7, 8
2, 2, 9, 10, 3, 11, 12, 13, 6
3, 9, 14, 15, 10, 16, 17, 18, 12
4, 14, 19, 20, 15, 21, 22, 23, 17
5, 4, 3, 24, 25, 7, 26, 27, 28
6, 3, 10, 29, 24, 13, 30, 31, 26
7, 10, 15, 32, 29, 18, 33, 34, 30
8, 15, 20, 35, 32, 23, 36, 37, 33
9, 25, 24, 38, 39, 27, 40, 41, 42
10, 24, 29, 43, 38, 31, 44, 45, 40
11, 29, 32, 46, 43, 34, 47, 48, 44
12, 32, 35, 49, 46, 37, 50, 51, 47
13, 39, 38, 52, 53, 41, 54, 55, 56
14, 38, 43, 57, 52, 45, 58, 59, 54
15, 43, 46, 60, 57, 48, 61, 62, 58
16, 46, 49, 63, 60, 51, 64, 65, 61

*NSET,NSET=left_nodes_no_corner
4, 39, 8, 42, 56, 25, 28
*NSET,NSET=upper_nodes_no_corner
65, 52, 55, 57, 59, 60, 62
*NSET,NSET=lower_nodes_no_corner
2, 5, 9, 11, 14, 16, 21
*NSET,NSET=lower_left_vertex
1
*NSET,NSET=upper_left_vertex
53
*NSET,NSET=lower_nodes
1, 2, 5, 9, 11, 14, 16, 19, 21
*NSET,NSET=right_nodes_no_corner
64, 35, 36, 49, 50, 20, 22
*NSET,NSET=upper_nodes
65, 52, 53, 55, 57, 59, 60, 62, 63
*NSET,NSET=lower_right_vertex
19
*NSET,NSET=left_nodes
1, 4, 39, 8, 42, 53, 56, 25, 28
*NSET,NSET=upper_right_vertex
63
*NSET,NSET=right_nodes
64, 35, 36, 49, 50, 19, 20, 22, 63

*ELSET, ELSET=TEST
10, 11, 6, 7
*ELSET, ELSET=Eall
1, 2, 3, 4, 5, 6, 7, 8, 9, 10, 11, 12, 13, 14, 15, 16

*ELSET, ELSET=E1
1, 2, 3, 4, 5, 8, 9, 12, 13, 14, 15, 16
*ELSET, ELSET=E0
10, 11, 6, 7

*EQUATION
4
16,1,1.000000,1,1,-1.000000,53,1,1.000000,62,1,-1.000000,
*EQUATION
4
16,2,1.000000,1,2,-1.000000,53,2,1.000000,62,2,-1.000000,
*EQUATION
4
16,3,1.000000,1,3,-1.000000,53,3,1.000000,62,3,-1.000000,
*EQUATION
4
16,4,1.000000,1,4,-1.000000,53,4,1.000000,62,4,-1.000000,
*EQUATION
4
16,5,1.000000,1,5,-1.000000,53,5,1.000000,62,5,-1.000000,
*EQUATION
4
16,6,1.000000,1,6,-1.000000,53,6,1.000000,62,6,-1.000000,
*EQUATION
4
2,1,1.000000,1,1,-1.000000,53,1,1.000000,52,1,-1.000000,
*EQUATION
4
2,2,1.000000,1,2,-1.000000,53,2,1.000000,52,2,-1.000000,
*EQUATION
4
2,3,1.000000,1,3,-1.000000,53,3,1.000000,52,3,-1.000000,
*EQUATION
4
2,4,1.000000,1,4,-1.000000,53,4,1.000000,52,4,-1.000000,
*EQUATION
4
2,5,1.000000,1,5,-1.000000,53,5,1.000000,52,5,-1.000000,
*EQUATION
4
2,6,1.000000,1,6,-1.000000,53,6,1.000000,52,6,-1.000000,
*EQUATION
4
5,1,1.000000,1,1,-1.000000,53,1,1.000000,55,1,-1.000000,
*EQUATION
4
5,2,1.000000,1,2,-1.000000,53,2,1.000000,55,2,-1.000000,
*EQUATION
4
5,3,1.000000,1,3,-1.000000,53,3,1.000000,55,3,-1.000000,
*EQUATION
4
5,4,1.000000,1,4,-1.000000,53,4,1.000000,55,4,-1.000000,
*EQUATION
4
5,5,1.000000,1,5,-1.000000,53,5,1.000000,55,5,-1.000000,
*EQUATION
4
5,6,1.000000,1,6,-1.000000,53,6,1.000000,55,6,-1.000000,
*EQUATION
4
9,1,1.000000,1,1,-1.000000,53,1,1.000000,57,1,-1.000000,
*EQUATION
4
9,2,1.000000,1,2,-1.000000,53,2,1.000000,57,2,-1.000000,
*EQUATION
4
9,3,1.000000,1,3,-1.000000,53,3,1.000000,57,3,-1.000000,
*EQUATION
4
9,4,1.000000,1,4,-1.000000,53,4,1.000000,57,4,-1.000000,
*EQUATION
4
9,5,1.000000,1,5,-1.000000,53,5,1.000000,57,5,-1.000000,
*EQUATION
4
9,6,1.000000,1,6,-1.000000,53,6,1.000000,57,6,-1.000000,
*EQUATION
4
11,1,1.000000,1,1,-1.000000,53,1,1.000000,59,1,-1.000000,
*EQUATION
4
11,2,1.000000,1,2,-1.000000,53,2,1.000000,59,2,-1.000000,
*EQUATION
4
11,3,1.000000,1,3,-1.000000,53,3,1.000000,59,3,-1.000000,
*EQUATION
4
11,4,1.000000,1,4,-1.000000,53,4,1.000000,59,4,-1.000000,
*EQUATION
4
11,5,1.000000,1,5,-1.000000,53,5,1.000000,59,5,-1.000000,
*EQUATION
4
11,6,1.000000,1,6,-1.000000,53,6,1.000000,59,6,-1.000000,
*EQUATION
4
14,1,1.000000,1,1,-1.000000,53,1,1.000000,60,1,-1.000000,
*EQUATION
4
14,2,1.000000,1,2,-1.000000,53,2,1.000000,60,2,-1.000000,
*EQUATION
4
14,3,1.000000,1,3,-1.000000,53,3,1.000000,60,3,-1.000000,
*EQUATION
4
14,4,1.000000,1,4,-1.000000,53,4,1.000000,60,4,-1.000000,
*EQUATION
4
14,5,1.000000,1,5,-1.000000,53,5,1.000000,60,5,-1.000000,
*EQUATION
4
14,6,1.000000,1,6,-1.000000,53,6,1.000000,60,6,-1.000000,
*EQUATION
4
21,1,1.000000,1,1,-1.000000,53,1,1.000000,65,1,-1.000000,
*EQUATION
4
21,2,1.000000,1,2,-1.000000,53,2,1.000000,65,2,-1.000000,
*EQUATION
4
21,3,1.000000,1,3,-1.000000,53,3,1.000000,65,3,-1.000000,
*EQUATION
4
21,4,1.000000,1,4,-1.000000,53,4,1.000000,65,4,-1.000000,
*EQUATION
4
21,5,1.000000,1,5,-1.000000,53,5,1.000000,65,5,-1.000000,
*EQUATION
4
21,6,1.000000,1,6,-1.000000,53,6,1.000000,65,6,-1.000000,
*EQUATION
4
56,1,1.000000,1,1,-1.000000,19,1,1.000000,64,1,-1.000000,
*EQUATION
4
56,2,1.000000,1,2,-1.000000,19,2,1.000000,64,2,-1.000000,
*EQUATION
4
56,3,1.000000,1,3,-1.000000,19,3,1.000000,64,3,-1.000000,
*EQUATION
4
56,4,1.000000,1,4,-1.000000,19,4,1.000000,64,4,-1.000000,
*EQUATION
4
56,5,1.000000,1,5,-1.000000,19,5,1.000000,64,5,-1.000000,
*EQUATION
4
56,6,1.000000,1,6,-1.000000,19,6,1.000000,64,6,-1.000000,
*EQUATION
4
4,1,1.000000,1,1,-1.000000,19,1,1.000000,20,1,-1.000000,
*EQUATION
4
4,2,1.000000,1,2,-1.000000,19,2,1.000000,20,2,-1.000000,
*EQUATION
4
4,3,1.000000,1,3,-1.000000,19,3,1.000000,20,3,-1.000000,
*EQUATION
4
4,4,1.000000,1,4,-1.000000,19,4,1.000000,20,4,-1.000000,
*EQUATION
4
4,5,1.000000,1,5,-1.000000,19,5,1.000000,20,5,-1.000000,
*EQUATION
4
4,6,1.000000,1,6,-1.000000,19,6,1.000000,20,6,-1.000000,
*EQUATION
4
39,1,1.000000,1,1,-1.000000,19,1,1.000000,49,1,-1.000000,
*EQUATION
4
39,2,1.000000,1,2,-1.000000,19,2,1.000000,49,2,-1.000000,
*EQUATION
4
39,3,1.000000,1,3,-1.000000,19,3,1.000000,49,3,-1.000000,
*EQUATION
4
39,4,1.000000,1,4,-1.000000,19,4,1.000000,49,4,-1.000000,
*EQUATION
4
39,5,1.000000,1,5,-1.000000,19,5,1.000000,49,5,-1.000000,
*EQUATION
4
39,6,1.000000,1,6,-1.000000,19,6,1.000000,49,6,-1.000000,
*EQUATION
4
8,1,1.000000,1,1,-1.000000,19,1,1.000000,22,1,-1.000000,
*EQUATION
4
8,2,1.000000,1,2,-1.000000,19,2,1.000000,22,2,-1.000000,
*EQUATION
4
8,3,1.000000,1,3,-1.000000,19,3,1.000000,22,3,-1.000000,
*EQUATION
4
8,4,1.000000,1,4,-1.000000,19,4,1.000000,22,4,-1.000000,
*EQUATION
4
8,5,1.000000,1,5,-1.000000,19,5,1.000000,22,5,-1.000000,
*EQUATION
4
8,6,1.000000,1,6,-1.000000,19,6,1.000000,22,6,-1.000000,
*EQUATION
4
25,1,1.000000,1,1,-1.000000,19,1,1.000000,35,1,-1.000000,
*EQUATION
4
25,2,1.000000,1,2,-1.000000,19,2,1.000000,35,2,-1.000000,
*EQUATION
4
25,3,1.000000,1,3,-1.000000,19,3,1.000000,35,3,-1.000000,
*EQUATION
4
25,4,1.000000,1,4,-1.000000,19,4,1.000000,35,4,-1.000000,
*EQUATION
4
25,5,1.000000,1,5,-1.000000,19,5,1.000000,35,5,-1.000000,
*EQUATION
4
25,6,1.000000,1,6,-1.000000,19,6,1.000000,35,6,-1.000000,
*EQUATION
4
42,1,1.000000,1,1,-1.000000,19,1,1.000000,50,1,-1.000000,
*EQUATION
4
42,2,1.000000,1,2,-1.000000,19,2,1.000000,50,2,-1.000000,
*EQUATION
4
42,3,1.000000,1,3,-1.000000,19,3,1.000000,50,3,-1.000000,
*EQUATION
4
42,4,1.000000,1,4,-1.000000,19,4,1.000000,50,4,-1.000000,
*EQUATION
4
42,5,1.000000,1,5,-1.000000,19,5,1.000000,50,5,-1.000000,
*EQUATION
4
42,6,1.000000,1,6,-1.000000,19,6,1.000000,50,6,-1.000000,
*EQUATION
4
28,1,1.000000,1,1,-1.000000,19,1,1.000000,36,1,-1.000000,
*EQUATION
4
28,2,1.000000,1,2,-1.000000,19,2,1.000000,36,2,-1.000000,
*EQUATION
4
28,3,1.000000,1,3,-1.000000,19,3,1.000000,36,3,-1.000000,
*EQUATION
4
28,4,1.000000,1,4,-1.000000,19,4,1.000000,36,4,-1.000000,
*EQUATION
4
28,5,1.000000,1,5,-1.000000,19,5,1.000000,36,5,-1.000000,
*EQUATION
4
28,6,1.000000,1,6,-1.000000,19,6,1.000000,36,6,-1.000000,
*EQUATION
4
63,1,-1.000000,1,1,-1.000000,19,1,1.000000,53,1,1.000000,
*EQUATION
4
63,2,-1.000000,1,2,-1.000000,19,2,1.000000,53,2,1.000000,
*EQUATION
4
63,3,-1.000000,1,3,-1.000000,19,3,1.000000,53,3,1.000000,
*EQUATION
4
63,4,-1.000000,1,4,-1.000000,19,4,1.000000,53,4,1.000000,
*EQUATION
4
63,5,-1.000000,1,5,-1.000000,19,5,1.000000,53,5,1.000000,
*EQUATION
4
63,6,-1.000000,1,6,-1.000000,19,6,1.000000,53,6,1.000000,
*EQUATION
2
64,1,1.000000,19,1,-1.000000,
*EQUATION
2
49,1,1.000000,19,1,-1.000000,
*EQUATION
2
50,1,1.000000,19,1,-1.000000,
*EQUATION
2
35,1,1.000000,19,1,-1.000000,
*EQUATION
2
36,1,1.000000,19,1,-1.000000,
*EQUATION
2
22,1,1.000000,19,1,-1.000000,
*EQUATION
2
20,1,1.000000,19,1,-1.000000,

*BOUNDARY
upper_nodes_no_corner,2,3
upper_left_vertex,1,6
upper_nodes_no_corner,5,6
lower_left_vertex,1,1
lower_left_vertex,3,6
right_nodes_no_corner,3,4
right_nodes_no_corner,6,6
lower_right_vertex,3,6

*MATERIAL, NAME=977_2
*ELASTIC, TYPE=ENGINEERING CONSTANTS
145568.5,9324.9,9324.9,0.3,0.3,0.3,4756.8,4756.8,
4200.0,294.0

*ORIENTATION,NAME=global_R_0,SYSTEM=RECTANGULAR
1.0,0.0,0.0,0.0,1.0,0.0

*SHELL SECTION, COMPOSITE, ELSET=Eall, OFFSET=-0.500000
0.250000,,977_2
0.250000,,977_2
0.250000,,977_2
0.250000,,977_2

*STEP
*STATIC
*CLOAD
19,1,-1000.0

*NODE FILE
U
*EL FILE
S
*END STEP