*NODE, NSET=Nall
       1,0.000000000000e+000,0.000000000000e+000,0.000000000000e+000
       2,1.000000000000e+002,0.000000000000e+000,0.000000000000e+000
       3,1.000000000000e+002,1.000000000000e+002,0.000000000000e+000
       4,0.000000000000e+000,1.000000000000e+002,0.000000000000e+000
       5,0.000000000000e+000,1.050000000000e+002,0.000000000000e+000
       6,1.000000000000e+002,1.050000000000e+002,0.000000000000e+000
       7,1.000000000000e+002,2.050000000000e+002,0.000000000000e+000
       8,0.000000000000e+000,2.050000000000e+002,0.000000000000e+000
*ELEMENT, TYPE=S4, ELSET=Eall
     1,      1,      2,      3,      4
     2,      5,      6,      7,      8

*EQUATION
2
4,1,1,5,1,-1
2
4,2,1,5,2,-1
2
4,3,1,5,3,-1
2
4,4,1,5,4,-1
2
4,5,1,5,5,-1
2
4,6,1,5,6,-1

2
3,1,1,6,1,-1
2
3,2,1,6,2,-1
2
3,3,1,6,3,-1
2
3,4,1,6,4,-1
2
3,5,1,6,5,-1
2
3,6,1,6,6,-1

*MATERIAL, Name=steel

*ELASTIC
210000, 0.3

*DENSITY
7.86E-9

*SHELL SECTION,ELSET=Eall,MATERIAL=steel
10

*STEP
**, NLGEOM

*STATIC

*BOUNDARY
1,1,6,0
2,1,6,0
7,1,3,1
8,1,3,1

***DLOAD
**Eall,GRAV,-9810,0,0,1

*NODE FILE, OUTPUT=2D 
U

*EL FILE
S

*END STEP




