*HEADING
Model: shell_edge-rb-solid
*NODE, NSET=Nall
       1,0.000000000000e+000,0.000000000000e+000,0.000000000000e+000
       2,0.000000000000e+000,2.500000000000e+001,0.000000000000e+000
       3,2.500000000000e+001,2.500000000000e+001,0.000000000000e+000
       4,2.500000000000e+001,0.000000000000e+000,0.000000000000e+000
       5,5.000000000000e+001,2.500000000000e+001,0.000000000000e+000
       6,5.000000000000e+001,0.000000000000e+000,0.000000000000e+000
       7,7.500000000000e+001,2.500000000000e+001,0.000000000000e+000
       8,7.500000000000e+001,0.000000000000e+000,0.000000000000e+000
       9,1.000000000000e+002,2.500000000000e+001,0.000000000000e+000
      10,1.000000000000e+002,0.000000000000e+000,0.000000000000e+000
      11,0.000000000000e+000,5.000000000000e+001,0.000000000000e+000
      12,2.500000000000e+001,5.000000000000e+001,0.000000000000e+000
      13,5.000000000000e+001,5.000000000000e+001,0.000000000000e+000
      14,7.500000000000e+001,5.000000000000e+001,0.000000000000e+000
      15,1.000000000000e+002,5.000000000000e+001,0.000000000000e+000
      16,0.000000000000e+000,7.500000000000e+001,0.000000000000e+000
      17,2.500000000000e+001,7.500000000000e+001,0.000000000000e+000
      18,5.000000000000e+001,7.500000000000e+001,0.000000000000e+000
      19,7.500000000000e+001,7.500000000000e+001,0.000000000000e+000
      20,1.000000000000e+002,7.500000000000e+001,0.000000000000e+000
** ... 132 like lines cut
*ELEMENT, TYPE=S4, ELSET=Eall
     1,      1,      2,      3,      4
     2,      4,      3,      5,      6
     3,      6,      5,      7,      8
     4,      8,      7,      9,     10
     5,      2,     11,     12,      3
     6,      3,     12,     13,      5
     7,      5,     13,     14,      7
     8,      7,     14,     15,      9
     9,     11,     16,     17,     12
    10,     12,     17,     18,     13
    11,     13,     18,     19,     14
    12,     14,     19,     20,     15
    13,     16,     21,     22,     17
    14,     17,     22,     23,     18
    15,     18,     23,     24,     19
    16,     19,     24,     25,     20
*ELEMENT, TYPE=C3D8, ELSET=Eall
    17,    28,    29,    30,    31,    32,    33,    34,    35
    18,    31,    30,    36,    37,    35,    34,    38,    39
    19,    37,    36,    40,    41,    39,    38,    42,    43
    20,    41,    40,    44,    45,    43,    42,    46,    47
    21,    32,    33,    34,    35,    48,    49,    50,    51
    22,    35,    34,    38,    39,    51,    50,    52,    53
    23,    39,    38,    42,    43,    53,    52,    54,    55
    24,    43,    42,    46,    47,    55,    54,    56,    57
    25,    48,    49,    50,    51,    58,    59,    60,    61
    26,    51,    50,    52,    53,    61,    60,    62,    63
    27,    53,    52,    54,    55,    63,    62,    64,    65
    28,    55,    54,    56,    57,    65,    64,    66,    67
    29,    58,    59,    60,    61,    68,    69,    70,    71
    30,    61,    60,    62,    63,    71,    70,    72,    73
    31,    63,    62,    64,    65,    73,    72,    74,    75
    32,    65,    64,    66,    67,    75,    74,    76,    77
    33,    29,    78,    79,    30,    33,    80,    81,    34
    34,    30,    79,    82,    36,    34,    81,    83,    38
    35,    36,    82,    84,    40,    38,    83,    85,    42
    36,    40,    84,    86,    44,    42,    85,    87,    46
** ... 44 like lines cut
** Names based on shell
*ELSET,ELSET=Eshell 
1, 
2, 
3, 
4, 
5, 
6, 
7, 
8, 
9, 
10, 
11, 
12, 
13, 
14, 
15, 
16, 
** Names based on solid
*ELSET,ELSET=Esolid 
17, 
18, 
19, 
20, 
21, 
22, 
23, 
24, 
25, 
26, 
27, 
28, 
29, 
30, 
31, 
32, 
33, 
34, 
35, 
36, 
** ... 44 like lines cut
** Names based on Nshell
*NSET,NSET=NNshell 
1, 
2, 
11, 
16, 
21, 
** Names based on Nsolid
*NSET,NSET=NNsolid 
28, 
29, 
32, 
33, 
48, 
49, 
58, 
59, 
68, 
69, 
78, 
80, 
88, 
93, 
98, 
103, 
105, 
113, 
118, 
123, 
** ... 5 like lines cut
** Names based on refnode
*NSET,NSET=Nrefnode 
26,
** Names based on rotnode
*NSET,NSET=Nrotnode 
27,
** Names based on fix
*NSET,NSET=Nfix 
44, 
45, 
46, 
47, 
56, 
57, 
66, 
67, 
76, 
77, 
86, 
87, 
92, 
97, 
102, 
111, 
112, 
117, 
122, 
127, 
** ... 5 like lines cut
*RIGID BODY,NSET=NNshell,REF NODE=26,ROT NODE=27
*RIGID BODY,NSET=NNsolid,REF NODE=26,ROT NODE=27
*MATERIAL,NAME=Steel
*ELASTIC
210000,0.3
*DENSITY
7.86E-9
*SHELL SECTION,ELSET=Eshell,MATERIAL=Steel
1
*SOLID SECTION, Elset=Esolid, Material=steel
*STEP
*STATIC
*BOUNDARY
Nfix,1,3,0
*DLOAD
Eall,GRAV,9810.,0.,0.,-1
*NODE FILE
U
*EL FILE,OUTPUT=2D
S
*END STEP