**Shell Structure
**
*NODE, NSET=Nall
       1,0.000000000000e+00,5.551115123126e-17,0.000000000000e+00
       2,5.580000000000e-01,5.551115123126e-17,0.000000000000e+00
       3,1.130305000000e+00,7.620000000000e-01,0.000000000000e+00
       4,8.187707000000e-01,7.620000000000e-01,0.000000000000e+00
       5,1.743750000000e-02,5.551115123126e-17,0.000000000000e+00
       6,3.487500000000e-02,5.551115123126e-17,0.000000000000e+00
       7,5.231250000000e-02,5.551115123126e-17,0.000000000000e+00
       8,6.975000000000e-02,5.551115123126e-17,0.000000000000e+00
       9,8.718750000000e-02,5.551115123126e-17,0.000000000000e+00
      10,1.046250000000e-01,5.551115123126e-17,0.000000000000e+00
      11,1.220625000000e-01,5.551115123126e-17,0.000000000000e+00
      12,1.395000000000e-01,5.551115123126e-17,0.000000000000e+00
      13,1.569375000000e-01,5.551115123126e-17,0.000000000000e+00
      14,1.743750000000e-01,5.551115123126e-17,0.000000000000e+00
      15,1.918125000000e-01,5.551115123126e-17,0.000000000000e+00
      16,2.092500000000e-01,5.551115123126e-17,0.000000000000e+00
      17,2.266875000000e-01,5.551115123126e-17,0.000000000000e+00
      18,2.441250000000e-01,5.551115123126e-17,0.000000000000e+00
      19,2.615625000000e-01,5.551115123126e-17,0.000000000000e+00
      20,2.790000000000e-01,5.551115123126e-17,0.000000000000e+00
** ... 2113 like lines cut
*ELEMENT, TYPE=S8R, ELSET=Eall
     1,      1,      6,    233,    231,      5,    848,    849,    232
     2,      6,      8,    234,    233,      7,    850,    851,    848
     3,      8,     10,    235,    234,      9,    852,    853,    850
     4,     10,     12,    236,    235,     11,    854,    855,    852
     5,     12,     14,    237,    236,     13,    856,    857,    854
     6,     14,     16,    238,    237,     15,    858,    859,    856
     7,     16,     18,    239,    238,     17,    860,    861,    858
     8,     18,     20,    240,    239,     19,    862,    863,    860
     9,     20,     22,    241,    240,     21,    864,    865,    862
    10,     22,     24,    242,    241,     23,    866,    867,    864
    11,     24,     26,    243,    242,     25,    868,    869,    866
    12,     26,     28,    244,    243,     27,    870,    871,    868
    13,     28,     30,    245,    244,     29,    872,    873,    870
    14,     30,     32,    246,    245,     31,    874,    875,    872
    15,     32,     34,    247,    246,     33,    876,    877,    874
    16,     34,      2,     37,    247,     35,     36,    878,    876
    17,    231,    233,    248,    229,    849,    879,    880,    230
    18,    233,    234,    249,    248,    851,    881,    882,    879
    19,    234,    235,    250,    249,    853,    883,    884,    881
    20,    235,    236,    251,    250,    855,    885,    886,    883
** ... 652 like lines cut
*NSET, NSET=FIX
1,2,5,6,7,8,9,10,11,12,13,
14,15,16,17,18,19,20,21,22,
23,24,25,26,27,28,29,30,31,
32,33,34,35
*BOUNDARY
FIX,1,3
*MATERIAL,NAME=EL
*ELASTIC
70000000000,.3
*DENSITY
2700
*SHELLSECTION,ELSET=Eall,MATERIAL=EL
0.01
*STEP,NLGEOM
*FREQUENCY
4
*NODE PRINT,NSET=Nall
U
*NODE FILE
U
*NODE FILE
U
*NODE FILE
U
*EL FILE
S
*END STEP
