** 
*HEADING
m-C slope example from Clausen - REDUCED STRENGTH fs=1.55                                                                      
*NODE,NSET=ALL
1,0.000000,0.000000,0.000000
2,1.00000,0.000000,0.000000
3,2.00000,0.000000,0.000000
4,3.00000,0.000000,0.000000
5,4.00000,0.000000,0.000000
6,5.00000,0.000000,0.000000
7,6.00000,0.000000,0.000000
8,7.00000,0.000000,0.000000
9,8.00000,0.000000,0.000000
10,9.00000,0.000000,0.000000
11,10.0000,0.000000,0.000000
12,11.0000,0.000000,0.000000
13,12.0000,0.000000,0.000000
14,13.0000,0.000000,0.000000
15,14.0000,0.000000,0.000000
16,15.0000,0.000000,0.000000
17,16.0000,0.000000,0.000000
18,17.0000,0.000000,0.000000
19,18.0000,0.000000,0.000000
20,19.0000,0.000000,0.000000
** ... 3386 like lines cut
*ELEMENT,TYPE=C3D8,ELSET=EG1
1600,453,104,452,454,1705,1704,1707,1706
1601,457,108,456,458,1709,1708,1711,1710
1602,461,102,460,462,1713,1712,1715,1714
1603,465,112,464,466,1717,1716,1719,1718
1604,459,105,468,469,1721,1720,1723,1722
1605,472,101,471,473,1725,1724,1727,1726
1606,476,116,475,477,1729,1728,1731,1730
1607,467,109,479,480,1733,1732,1735,1734
1608,470,106,482,483,1737,1736,1739,1738
1609,486,100,485,487,1741,1740,1743,1742
1610,490,120,489,491,1745,1744,1747,1746
1611,478,113,493,494,1749,1748,1751,1750
1612,481,110,496,497,1753,1752,1755,1754
1613,484,107,499,500,1757,1756,1759,1758
1614,503,99,502,504,1761,1760,1763,1762
1615,507,124,506,508,1765,1764,1767,1766
1616,492,117,510,511,1769,1768,1771,1770
1617,495,114,513,514,1773,1772,1775,1774
1618,498,111,516,517,1777,1776,1779,1778
1619,501,98,519,520,1781,1780,1783,1782
** ... 1579 like lines cut
*SOLID SECTION,ELSET=EG1,MATERIAL=ABAQUSMCWD
*MATERIAL,NAME=ABAQUSMCWD
*USER MATERIAL, CONSTANTS=5
2.0000E+04,0.26000E+00,8.7,10.35,10.35
*DENSITY
0.158000E+01,
*BOUNDARY
1,1,1
1,2,2
1,3,3
2,1,1
2,2,2
2,3,3
3,1,1
3,2,2
3,3,3
4,1,1
4,2,2
4,3,3
5,1,1
5,2,2
5,3,3
6,1,1
6,2,2
6,3,3
7,1,1
7,2,2
** ... 3790 like lines cut
*STEP
*STATIC
*DLOAD
EG1,GRAV,9.810,0.0000,0.0000,-1.000
*NODE FILE
U
RF
*EL FILE
S
*END STEP
