**Shell Structure
**
*NODE, NSET=Nall
       1,0.000000000000e+00,5.551115123126e-17,1.000000000000e-02
       2,8.187707000000e-01,7.620000000000e-01,1.000000000000e-02
       3,8.187707000000e-01,7.620000000000e-01,0.000000000000e+00
       4,0.000000000000e+00,5.551115123126e-17,0.000000000000e+00
       5,1.130305000000e+00,7.620000000000e-01,1.000000000000e-02
       6,1.130305000000e+00,7.620000000000e-01,0.000000000000e+00
       7,5.580000000000e-01,5.551115123126e-17,1.000000000000e-02
       8,5.580000000000e-01,5.551115123126e-17,0.000000000000e+00
       9,3.721685000000e-02,3.463636000000e-02,1.000000000000e-02
      10,7.443370000000e-02,6.927273000000e-02,1.000000000000e-02
      11,1.116506000000e-01,1.039091000000e-01,1.000000000000e-02
      12,1.488674000000e-01,1.385455000000e-01,1.000000000000e-02
      13,1.860843000000e-01,1.731818000000e-01,1.000000000000e-02
      14,2.233011000000e-01,2.078182000000e-01,1.000000000000e-02
      15,2.605180000000e-01,2.424545000000e-01,1.000000000000e-02
      16,2.977348000000e-01,2.770909000000e-01,1.000000000000e-02
      17,3.349517000000e-01,3.117273000000e-01,1.000000000000e-02
      18,3.721685000000e-01,3.463636000000e-01,1.000000000000e-02
      19,4.093854000000e-01,3.810000000000e-01,1.000000000000e-02
      20,4.466022000000e-01,4.156364000000e-01,1.000000000000e-02
** ... 612 like lines cut
*ELEMENT, TYPE=C3D20R, ELSET=Eall
     1,     4,   137,   186,    50,     1,   134,   386,    10,   136,   251,
         253,    51,   135,   457,   455,     9,    52,   180,   573,   149
     2,   137,   139,   185,   186,   134,   132,   396,   386,   138,   249,
         252,   251,   133,   478,   476,   457,   180,   179,   574,   573
     3,   139,   141,   184,   185,   132,   130,   406,   396,   140,   247,
         250,   249,   131,   499,   497,   478,   179,   178,   575,   574
     4,   141,   143,   183,   184,   130,   128,   416,   406,   142,   245,
         248,   247,   129,   520,   518,   499,   178,   177,   576,   575
     5,   143,   145,   182,   183,   128,   126,   426,   416,   144,   243,
         246,   245,   127,   541,   539,   520,   177,   176,   577,   576
     6,   145,   147,   181,   182,   126,   124,   436,   426,   146,   241,
         244,   243,   125,   562,   560,   541,   176,   175,   578,   577
     7,   147,     8,   103,   181,   124,     7,    99,   436,   148,   102,
         242,   241,   123,   100,   572,   562,   175,   101,   174,   578
     8,    50,   186,   192,    48,    10,   386,   385,    12,   253,   264,
         266,    49,   455,   456,   453,    11,   149,   573,   579,   150
     9,   186,   185,   191,   192,   386,   396,   395,   385,   252,   262,
         265,   264,   476,   477,   474,   456,   573,   574,   580,   579
    10,   185,   184,   190,   191,   396,   406,   405,   395,   250,   260,
         263,   262,   497,   498,   495,   477,   574,   575,   581,   580
** ... 134 like lines cut
*NSET, NSET=FIX
1,4,7,8,52,101,123,124,125,126,127,128
129,130,131,132,133,134,135,136,137,138
139,140,141,142,143,144,145,146,147,148
175,176,177,178,179,180
*BOUNDARY
FIX,1,3
*MATERIAL,NAME=EL
*ELASTIC
70000000000,.3
*DENSITY
2700
*SOLID SECTION,ELSET=Eall,MATERIAL=EL
*STEP
*STATIC
*FREQUENCY
4
*NODE PRINT,NSET=Nall
U
*NODE FILE
U
*NODE FILE
U
*NODE FILE
U
*EL FILE
S
*END STEP
