**
** Structure: Simple beam - twistt
** Test objective: C3D8I elements
**
*NODE, NSET=Nall
       1,1.000000000000e+002,1.000000000000e+002,0.000000000000e+000
       2,1.000000000000e+002,7.500000000000e+001,0.000000000000e+000
       3,1.250000000000e+002,7.500000000000e+001,0.000000000000e+000
       4,1.250000000000e+002,1.000000000000e+002,0.000000000000e+000
       5,1.500000000000e+002,7.500000000000e+001,0.000000000000e+000
       6,1.500000000000e+002,1.000000000000e+002,0.000000000000e+000
       7,1.750000000000e+002,7.500000000000e+001,0.000000000000e+000
       8,1.750000000000e+002,1.000000000000e+002,0.000000000000e+000
       9,2.000000000000e+002,7.500000000000e+001,0.000000000000e+000
      10,2.000000000000e+002,1.000000000000e+002,0.000000000000e+000
      11,2.250000000000e+002,7.500000000000e+001,0.000000000000e+000
      12,2.250000000000e+002,1.000000000000e+002,0.000000000000e+000
      13,2.500000000000e+002,7.500000000000e+001,0.000000000000e+000
      14,2.500000000000e+002,1.000000000000e+002,0.000000000000e+000
      15,2.750000000000e+002,7.500000000000e+001,0.000000000000e+000
      16,2.750000000000e+002,1.000000000000e+002,0.000000000000e+000
      17,3.000000000000e+002,7.500000000000e+001,0.000000000000e+000
      18,3.000000000000e+002,1.000000000000e+002,0.000000000000e+000
      19,1.000000000000e+002,5.000000000000e+001,0.000000000000e+000
      20,1.250000000000e+002,5.000000000000e+001,0.000000000000e+000
** ... 145 like lines cut
*ELEMENT, TYPE=S4, ELSET=Eall1
     1,      1,      2,      3,      4
     2,      4,      3,      5,      6
     3,      6,      5,      7,      8
     4,      8,      7,      9,     10
     5,     10,      9,     11,     12
     6,     12,     11,     13,     14
     7,     14,     13,     15,     16
     8,     16,     15,     17,     18
     9,      2,     19,     20,      3
    10,      3,     20,     21,      5
    11,      5,     21,     22,      7
    12,      7,     22,     23,      9
    13,      9,     23,     24,     11
    14,     11,     24,     25,     13
    15,     13,     25,     26,     15
    16,     15,     26,     27,     17
    17,     19,     28,     29,     20
    18,     20,     29,     30,     21
    19,     21,     30,     31,     22
    20,     22,     31,     32,     23
** ... 12 like lines cut
*ELEMENT, TYPE=C3D8, ELSET=Eall2
    33,     1,     2,    46,    47,    48,    49,    50,    51
    34,    47,    46,    52,    53,    51,    50,    54,    55
    35,    48,    49,    50,    51,    56,    57,    58,    59
    36,    51,    50,    54,    55,    59,    58,    60,    61
    37,    56,    57,    58,    59,    62,    63,    64,    65
    38,    59,    58,    60,    61,    65,    64,    66,    67
    39,    62,    63,    64,    65,    68,    69,    70,    71
    40,    65,    64,    66,    67,    71,    70,    72,    73
    41,     2,    19,    74,    46,    49,    75,    76,    50
    42,    46,    74,    77,    52,    50,    76,    78,    54
    43,    49,    75,    76,    50,    57,    79,    80,    58
    44,    50,    76,    78,    54,    58,    80,    81,    60
    45,    57,    79,    80,    58,    63,    82,    83,    64
    46,    58,    80,    81,    60,    64,    83,    84,    66
    47,    63,    82,    83,    64,    69,    85,    86,    70
    48,    64,    83,    84,    66,    70,    86,    87,    72
    49,    19,    28,    88,    74,    75,    89,    90,    76
    50,    74,    88,    91,    77,    76,    90,    92,    78
    51,    75,    89,    90,    76,    79,    93,    94,    80
    52,    76,    90,    92,    78,    80,    94,    95,    81
** ... 44 like lines cut
** Names based on support
*NSET,NSET=Nsupport 
68, 
69, 
70, 
71, 
72, 
73, 
85, 
86, 
87, 
99, 
100, 
101, 
113, 
114, 
115, 
116, 
117, 
120, 
121, 
136, 
** ... 5 like lines cut
** Names based on rigid
*NSET,NSET=Nrigid 
1, 
2, 
19, 
28, 
37, 
46, 
47, 
52, 
53, 
74, 
77, 
88, 
91, 
102, 
105, 
132, 
133, 
134, 
135, 
144, 
** ... 5 like lines cut
*MATERIAL, NAME=Steel
*ELASTIC
210000,0.3
*SOLID SECTION, ELSET=Eall2, MATERIAL=Steel
*SHELL SECTION, MATERIAL=Steel, ELSET=Eall1
20.0
*RIGID BODY,NSET=Nrigid
*STEP
*STATIC
*BOUNDARY
Nsupport, 1,3
*CLOAD
36, 3, -1000
27, 3, -1000
17, 3, -1000
45, 3, -500
18, 3, -500
*NODE FILE
U
*EL FILE
S
*END STEP