**
**   Model debug notes from Robert Whirley, Jan 2016, 
**
** Analysis type changed to Static, tweak penalties on contact, chg to node_to_surface contact,
** Added dummy notes 3269, 3270 for ROT_NODE to each body, constrained ROTs to 0 with *BOUNDARY
**
** Further investigation traced root cause of CCX crash with original model to the combination
**   of S3 elements and *DYNAMIC analysis.  Removing either of these characteristics prevents
**   the crash.  I am suspicious of the mass matrix computation for S3 elements but this is
**   unconfirmed.
**
**  Recommend revise mesh to remove all triangular shells.  This should work fine.
**  
**
** ABAQUS Input Deck Generated by HyperMesh Version  : 13.0.110.31
** Generated using HyperMesh-Abaqus Template Version : 13.0.110
**
**   Template:  ABAQUS/STANDARD 3D
**
*NODE
         1,  -50.0          ,  2.4999999999998,  50.0           
         2,  -45.0          ,  2.4999999999998,  50.0           
         3,  -40.0          ,  2.4999999999998,  50.0           
         4,  -35.0          ,  2.4999999999998,  50.0           
         5,  -30.0          ,  2.4999999999998,  50.0           
         6,  -25.0          ,  2.4999999999998,  50.0           
         7,  -20.0          ,  2.4999999999998,  50.0           
         8,  -15.0          ,  2.4999999999998,  50.0           
         9,  -10.0          ,  2.4999999999998,  50.0           
        10,  -5.0           ,  2.4999999999998,  50.0           
        11,  -7.10542736E-15,  2.4999999999998,  50.0           
        12,  5.0            ,  2.4999999999998,  50.0           
        13,  10.0           ,  2.4999999999998,  50.0           
        14,  15.0           ,  2.4999999999998,  50.0           
        15,  20.0           ,  2.4999999999998,  50.0           
        16,  25.0           ,  2.4999999999998,  50.0           
        17,  30.0           ,  2.4999999999998,  50.0           
        18,  35.0           ,  2.4999999999998,  50.0           
        19,  40.0           ,  2.4999999999998,  50.0           
        20,  45.0           ,  2.4999999999998,  50.0           
** ... 3248 like lines cut
** Dummy ROT nodes for rigid bodies      
      3269,  0.0 ,  0.0           ,  0.0
      3270,  0.0 ,  0.0           ,  0.0
**HWCOLOR COMP          3     3
*ELEMENT,TYPE=S3,ELSET=Flasche
      2047,      2271,      2272,      2242
      2081,      2314,      2313,      2290
      2102,      2324,      2310,      2299
      2120,      2330,      2328,      2307
      2124,      2372,      2373,      2351
      2129,      2374,      2371,      2352
      2161,      2368,      2388,      2389
      2569,      2790,      2791,      2788
      2647,      2877,      2875,      2876
      2656,      2887,      2881,      2875
      2660,      2886,      2874,      2871
      2668,      2892,      2893,      2876
      2677,      2899,      2896,      2871
      2693,      2907,      2906,      2896
      2716,      2924,      2925,      2931
      2721,      2862,      2932,      2861
      2727,      2860,      2930,      2935
      2729,      2934,      2933,      2935
      2731,      2411,      2410,      2938
      2748,      2943,      2942,      2946
** ... 48 like lines cut
**HWCOLOR COMP          3     3
*ELEMENT,TYPE=S4R,ELSET=Flasche
      1601,      1899,      1900,      1895,      1896
      1602,      1900,      1882,      1883,      1895
      1603,      1874,      1875,      1900,      1899
      1604,      1875,      1876,      1882,      1900
      1605,      1896,      1897,      1901,      1899
      1606,      1899,      1901,      1873,      1874
      1607,      1860,      1902,      1898,      1859
      1608,      1902,      1901,      1897,      1898
      1609,      1861,      1872,      1902,      1860
      1610,      1872,      1873,      1901,      1902
      1611,      1903,      1905,      1891,      1892
      1612,      1905,      1885,      1886,      1891
      1613,      1904,      1906,      1905,      1903
      1614,      1906,      1884,      1885,      1905
      1615,      1896,      1895,      1906,      1904
      1616,      1895,      1883,      1884,      1906
      1617,      1857,      1907,      1894,      1856
      1618,      1907,      1908,      1893,      1894
      1619,      1908,      1903,      1892,      1893
      1620,      1859,      1898,      1909,      1858
** ... 1448 like lines cut
**HWCOLOR COMP          1    10
*ELEMENT,TYPE=C3D8R,ELSET=platteo
      1201,      1089,      1074,      1073,      1091,      1324,      1327,      1326,
      1325
      1202,       976,      1315,      1314,       975,      1328,      1331,      1330,
      1329
      1203,      1088,      1092,       957,       956,      1332,      1335,      1334,
      1333
      1204,      1017,       970,       969,      1012,      1336,      1339,      1338,
      1337
      1205,      1298,      1296,       951,       950,      1340,      1343,      1342,
      1341
      1206,      1220,      1212,      1213,      1224,      1344,      1347,      1346,
      1345
      1207,       919,       918,      1170,      1201,      1348,      1351,      1350,
      1349
      1208,      1033,      1029,      1021,      1022,      1352,      1355,      1354,
      1353
      1209,      1236,      1238,      1227,      1228,      1356,      1359,      1358,
      1357
      1210,       914,       913,       963,      1237,      1360,      1363,      1362,
      1361
** ... 780 like lines cut
**HWCOLOR COMP          2    10
*ELEMENT,TYPE=C3D8R,ELSET=platteu
       401,       254,       241,       242,       253,       442,       445,       444,
       443
       402,       271,        51,        50,       307,       446,       449,       448,
       447
       403,       343,       280,       281,       341,       450,       453,       452,
       451
       404,       304,       303,       292,       291,       454,       457,       456,
       455
       405,       228,       227,       229,       230,       458,       461,       460,
       459
       406,       355,        81,        82,       356,       462,       465,       464,
       463
       407,       151,       147,       139,       140,       466,       469,       468,
       467
       408,       434,       435,       439,       438,       470,       473,       472,
       471
       409,        16,       154,       181,        17,       474,       477,       476,
       475
       410,       266,       265,       105,       106,       478,       481,       480,
       479
** ... 780 like lines cut
**HM_PROP_ID          3
**HM_comp_by_property "solprop"    11
*SOLID SECTION, ELSET=platteo, MATERIAL=stahl
**HM_PROP_ID          3
**HM_comp_by_property "solprop"    11
*SOLID SECTION, ELSET=platteu, MATERIAL=stahl
**HM_PROP_ID          4
**HM_comp_by_property "petprop"    11
*SHELL SECTION, ELSET=Flasche, MATERIAL=pet
0.5       ,
**HM_PROP_ID          1
**HM_Rigid_Body "rpo"         11
*RIGID BODY, ELSET = platteo, REF NODE = 1763, ROT NODE = 3269
**HM_PROP_ID          2
**HM_Rigid_Body "rpu"         11
*RIGID BODY, ELSET = platteu, REF NODE = 875, ROT NODE = 3270
*NSET, NSET=rsetu
       875,
*NSET, NSET=rseto
      1763,
*NSET, NSET=fset
      3149,      3150,      3151,      3152,      3153,      3154,      3155,      3156,
      3157,      3166,      3167,      3168,      3169,      3170,      3171,      3172,
      3205,      3206,      3207,      3208,      3209,      3210,      3211,      3212,
      3213,      3214,      3215,      3216,      3217,      3218,      3219,      3220,
      3221,      3222,      3223,      3224,      3225,      3226,      3227,      3228,
      3229,
**HMNAME MATS          1 stahl    11
*MATERIAL, NAME=stahl
*DENSITY
7.8000E-09,0.0       
*ELASTIC, TYPE = ISOTROPIC
210000.0  ,0.3       ,0.0       
**HMNAME MATS          2 pet    11
*MATERIAL, NAME=pet
*DENSITY
1.3800E-09,0.0       
*ELASTIC, TYPE = ISOTROPIC
4500.0    ,0.4       ,0.0       
**HMNAME PROPERTY          5 sint
*SURFACE INTERACTION, NAME = sint
*SURFACE BEHAVIOR, PRESSURE-OVERCLOSURE = LINEAR
** Small penalty needed for mismatched material E and
**     element type
** penalty reduced from 1e7 to 
** 1.0e4
** 1.0e3, 1.0e1
** 1.0e2,  1.0e0
1.0e1,  1.0e-1
**HMNAME GROUPS          3 CP:S:Flasche S:platteo
*CONTACT PAIR, INTERACTION=sint, TYPE=NODE TO SURFACE
S:Flasche, S:platteo
**HMNAME GROUPS          6 CP:S:Flasche:1 S:platteu
*CONTACT PAIR, INTERACTION=sint, TYPE=NODE TO SURFACE
S:Flasche:1, S:platteu
*SURFACE, NAME = S:Flasche, TYPE = ELEMENT
      2986, SPOS
      2987, SPOS
      2990, SPOS
      2991, SPOS
      2994, SPOS
      2995, SPOS
      3006, SPOS
      3007, SPOS
      3010, SPOS
      3011, SPOS
      3014, SPOS
      3015, SPOS
      3050, SPOS
      3051, SPOS
      3052, SPOS
      3053, SPOS
      3054, SPOS
      3055, SPOS
      3056, SPOS
      3057, SPOS
** ... 24 like lines cut
*SURFACE, NAME = S:platteo, TYPE = ELEMENT
      1204, S1   
      1576, S1   
      1212, S1   
      1220, S1   
      1429, S1   
      1238, S1   
      1291, S1   
      1256, S1   
      1265, S1   
      1281, S1   
      1436, S1   
      1484, S1   
      1314, S1   
      1321, S1   
      1549, S1   
      1329, S1   
      1337, S1   
      1421, S1   
      1344, S1   
      1347, S1   
** ... 12 like lines cut
*SURFACE, NAME = S:Flasche:1, TYPE = ELEMENT
      2081, SPOS
      2124, SPOS
      2129, SPOS
      2161, SPOS
      2884, SPOS
      2894, SPOS
      2079, SPOS
      2083, SPOS
      2119, SPOS
      2123, SPOS
      2127, SPOS
      2131, SPOS
      2133, SPOS
      2135, SPOS
      2137, SPOS
      2139, SPOS
      2140, SPOS
      2143, SPOS
      2145, SPOS
      2147, SPOS
** ... 50 like lines cut
*SURFACE, NAME = S:platteu, TYPE = ELEMENT
       795, S2   
       403, S2   
       411, S2   
       412, S2   
       414, S2   
       426, S2   
       434, S2   
       658, S2   
       798, S2   
       459, S2   
       470, S2   
       472, S2   
       613, S2   
       475, S2   
       479, S2   
       480, S2   
       485, S2   
       771, S2   
       532, S2   
       521, S2   
** ... 27 like lines cut
*AMPLITUDE, NAME =amp, DEFINITION = TABULAR
0.0       ,0.0       
0.1       ,1.0 
0.3       ,3.0
**HMNAME CURVE          1 amp
**HMNAME LOADSTEP          1 load
*STEP, INC = 500, NLGEOM = YES
** *DYNAMIC
** 1.0000E-03,0.1       ,          ,          
**HWNAME LOADCOL          1 bco
**HWCOLOR LOADCOL          1    11
*STATIC
.001, .30, , .001
*BOUNDARY, AMPLITUDE = amp
rseto,1,1,0.0
rseto,2,2,5.0    
rseto,3,3,0.0
**HWNAME LOADCOL          2 bcu
**HWCOLOR LOADCOL          2    11
*BOUNDARY
rsetu,1,3,0.0
**HWNAME LOADCOL          3 bcf
**HWCOLOR LOADCOL          3    11
** Constrain rigid body rotational dof's
*BOUNDARY
3269,1,3,0
3270,1,3,0
*BOUNDARY
fset,1,1,0.0
fset,3,3,0.0
*NODE FILE
U
*EL FILE
S, E
** *CONTACT FILE
** CSTRESS,
** CDISP,
*END STEP
*****
