*NODE, NSET=Nall
       1,-3.000000000000e+00,-6.000000000000e+00,0.000000000000e+00
       2,-3.000000000000e+00,6.000000000000e+00,0.000000000000e+00
       3,3.000000000000e+00,-6.000000000000e+00,0.000000000000e+00
       4,3.000000000000e+00,6.000000000000e+00,0.000000000000e+00
       5,-3.000000000000e+00,-4.800000000000e+00,0.000000000000e+00
       6,-3.000000000000e+00,-3.600000000000e+00,0.000000000000e+00
       7,-3.000000000000e+00,-2.400000000000e+00,0.000000000000e+00
       8,-3.000000000000e+00,-1.200000000000e+00,0.000000000000e+00
       9,-3.000000000000e+00,4.440892000000e-16,0.000000000000e+00
      10,-3.000000000000e+00,1.200000000000e+00,0.000000000000e+00
      11,-3.000000000000e+00,2.400000000000e+00,0.000000000000e+00
      12,-3.000000000000e+00,3.600000000000e+00,0.000000000000e+00
      13,-3.000000000000e+00,4.800000000000e+00,0.000000000000e+00
      14,-2.400000000000e+00,-6.000000000000e+00,0.000000000000e+00
      15,-1.800000000000e+00,-6.000000000000e+00,0.000000000000e+00
      16,-1.200000000000e+00,-6.000000000000e+00,0.000000000000e+00
      17,-6.000000000000e-01,-6.000000000000e+00,0.000000000000e+00
      18,2.220446000000e-16,-6.000000000000e+00,0.000000000000e+00
      19,6.000000000000e-01,-6.000000000000e+00,0.000000000000e+00
      20,1.200000000000e+00,-6.000000000000e+00,0.000000000000e+00
** ... 321 like lines cut
*ELEMENT, TYPE=S8, ELSET=Eall
    41,      2,     32,     41,     13,    152,    163,    162,    131
    42,     32,     33,     42,     41,    153,    165,    164,    163
    43,     33,     34,     43,     42,    154,    167,    166,    165
    44,     34,     35,     44,     43,    155,    169,    168,    167
    45,     35,     36,     45,     44,    156,    171,    170,    169
    46,     36,     37,     46,     45,    157,    173,    172,    171
    47,     37,     38,     47,     46,    158,    175,    174,    173
    48,     38,     39,     48,     47,    159,    177,    176,    175
    49,     39,     40,     49,     48,    160,    179,    178,    177
    50,     40,      4,     31,     49,    161,    151,    180,    179
    51,     13,     41,     50,     12,    162,    182,    181,    130
    52,     41,     42,     51,     50,    164,    184,    183,    182
    53,     42,     43,     52,     51,    166,    186,    185,    184
    54,     43,     44,     53,     52,    168,    188,    187,    186
    55,     44,     45,     54,     53,    170,    190,    189,    188
    56,     45,     46,     55,     54,    172,    192,    191,    190
    57,     46,     47,     56,     55,    174,    194,    193,    192
    58,     47,     48,     57,     56,    176,    196,    195,    194
    59,     48,     49,     58,     57,    178,    198,    197,    196
    60,     49,     31,     30,     58,    180,    150,    199,    198
** ... 80 like lines cut
** Names based on sup2
*NSET,NSET=sup2 
2, 
4, 
32, 
33, 
34, 
35, 
36, 
37, 
38, 
39, 
40, 
152, 
153, 
154, 
155, 
156, 
157, 
158, 
159, 
160, 
161, 
** Names based on S8R
*ELSET,ELSET=S8R 
41, 
42, 
43, 
44, 
45, 
46, 
47, 
48, 
49, 
50, 
51, 
52, 
53, 
54, 
55, 
56, 
57, 
58, 
59, 
60, 
** ... 80 like lines cut
** Names based on load
*NSET,NSET=load 
1, 
2, 
3, 
4, 
5, 
6, 
7, 
8, 
9, 
10, 
11, 
12, 
13, 
14, 
15, 
16, 
17, 
18, 
19, 
20, 
** ... 321 like lines cut
*ELSET,ELSET=load 
41, 
42, 
43, 
44, 
45, 
46, 
47, 
48, 
49, 
50, 
51, 
52, 
53, 
54, 
55, 
56, 
57, 
58, 
59, 
60, 
** ... 80 like lines cut
** Names based on sup1
*NSET,NSET=sup1 
1, 
3, 
14, 
15, 
16, 
17, 
18, 
19, 
20, 
21, 
22, 
132, 
133, 
134, 
135, 
136, 
137, 
138, 
139, 
140, 
141, 
** Surfaces based on sup2
*SURFACE, NAME=sup2
** Surfaces based on all
*SURFACE, NAME=all
131, SPOS 
41, SPOS 
140, SPOS 
50, SPOS 
121, SPOS 
111, SPOS 
101, SPOS 
91, SPOS 
81, SPOS 
71, SPOS 
61, SPOS 
51, SPOS 
132, SPOS 
133, SPOS 
134, SPOS 
135, SPOS 
136, SPOS 
137, SPOS 
138, SPOS 
139, SPOS 
** ... 80 like lines cut
** Surfaces based on load
*SURFACE, NAME=load
131, SPOS 
41, SPOS 
140, SPOS 
50, SPOS 
121, SPOS 
111, SPOS 
101, SPOS 
91, SPOS 
81, SPOS 
71, SPOS 
61, SPOS 
51, SPOS 
132, SPOS 
133, SPOS 
134, SPOS 
135, SPOS 
136, SPOS 
137, SPOS 
138, SPOS 
139, SPOS 
** ... 80 like lines cut
** Surfaces based on S8R
*SURFACE, NAME=S8R
** Surfaces based on sup1
*SURFACE, NAME=sup1


**extra node
*NODE,NSET=midsup
481,0,0,0
409,-3,0,0
427,3,0,0
478,-1.8,0,0
484,1.8,0,0



*MATERIAL,NAME=concrete20
*ELASTIC
3.0000E+10,0.2


*DENSITY
2.4000E+03
*EXPANSION
1.0000E-05


*SHELL SECTION,MATERIAL=concrete20,ELSET=Eall,,OFFSET=0.0000E+00
2.2000E-01

*BOUNDARY
sup1,1,1,0
sup1,2,2,0
sup1,3,3,0
sup1,4,4,0

*BOUNDARY
sup2,2,2,0
sup2,3,3,0
sup2,4,4,0

*BOUNDARY
midsup,1,3,0

*EQUATION
2
81,3,1,481,3,-1
*EQUATION
2
9,3,1,409,3,-1
*EQUATION
2
27,3,1,427,3,-1
*EQUATION
2
78,3,1,478,3,-1
*EQUATION
2
84,3,1,484,3,-1



*STEP
*STATIC
*DLOAD
Eall,GRAV,9.8100E+00,0,0,-1


*DLOAD
** Pressure based on load
131, P, 5.000000e+04
41, P, 5.000000e+04
140, P, 5.000000e+04
50, P, 5.000000e+04
121, P, 5.000000e+04
111, P, 5.000000e+04
101, P, 5.000000e+04
91, P, 5.000000e+04
81, P, 5.000000e+04
71, P, 5.000000e+04
61, P, 5.000000e+04
51, P, 5.000000e+04
132, P, 5.000000e+04
133, P, 5.000000e+04
134, P, 5.000000e+04
135, P, 5.000000e+04
136, P, 5.000000e+04
137, P, 5.000000e+04
138, P, 5.000000e+04
139, P, 5.000000e+04
** ... 80 like lines cut

*NODE FILE
U,
*EL FILE
S,ENER,
*NODE PRINT,NSET=sup1
RF
*NODE PRINT,NSET=sup2
RF
*END STEP



** explanation for second line after dynamic card


**     Initial time increment.
**     Time period of the step (seconds).
**     Minimum time increment allowed. Only active if DIRECT is not specified.
**     Maximum time increment allowed. Only active if DIRECT is not specified.
** (note: time increment should be small to keep energy balance,
** especially for contact problems)


*step, nlgeom, inc=1000000
*dynamic
0.001, 5, 0.000000001 , 0.002


** boundary conditions (with amplitude card, if variable)
*EQUATION,REMOVE
81,1,3
27,1,3
28,1,3


**Output (frd file)
**Displacements
*node file
u

**Stress
*el file
s

*endstep




