** Generated by Mecway 11.1
*NODE
1,0,0,0
2,1,0,0
3,0.125,0,0.5625
4,0.75,0,0.84375
5,0,0,1
6,1,0,1
7,0.78125,0,0.03125
8,0.0625,0,0.5625
9,0.5,0,0
10,0.8125,0.03125,0.03125
11,0.8125,0,0.84375
12,0.78125,0.03125,0
13,0.5,0,1
14,0.78125,0.03125,0.0625
15,0.8125,0,0.75
16,0.78125,0.03125,0.03125
17,0,0,0.5
18,1,0,0.5
19,0.84375,0,0
20,0.875,0,0.6875
** ... 12655 like lines cut
*ELEMENT,TYPE=C3D8
1,54,4228,4240,4231,11610,11614,11619,11617
2,4228,1378,4229,4240,11614,11611,11615,11619
3,4240,4229,1394,4230,11619,11615,11612,11616
4,4231,4240,4230,1381,11617,11619,11616,11613
5,11610,11614,11619,11617,1386,11606,11618,11609
6,11614,11611,11615,11619,11606,1390,11607,11618
7,11619,11615,11612,11616,11618,11607,1396,11608
8,11617,11619,11616,11613,11609,11618,11608,1393
9,1378,4242,4250,4229,11611,11625,11629,11615
10,4242,815,4243,4250,11625,11623,11626,11629
11,4250,4243,1379,4244,11629,11626,11624,11627
12,4229,4250,4244,1394,11615,11629,11627,11612
13,11611,11625,11629,11615,1390,11620,11628,11607
14,11625,11623,11626,11629,11620,1387,11621,11628
15,11629,11626,11624,11627,11628,11621,1391,11622
16,11615,11629,11627,11612,11607,11628,11622,1396
17,537,11630,11646,11633,11638,11642,11648,11645
18,11630,533,11631,11646,11642,11639,11643,11648
19,11646,11631,538,11632,11648,11643,11640,11644
20,11633,11646,11632,543,11645,11648,11644,11641
** ... 8172 like lines cut
*ELSET,ELSET=Default
1
2
3
4
5
6
7
8
9
10
11
12
13
14
15
16
17
18
19
20
** ... 8172 like lines cut
*MATERIAL,NAME=Material
*ELASTIC,TYPE=ISOTROPIC
200000000000,0.3
*DENSITY
7800
*SOLID SECTION,ELSET=Default,MATERIAL=Material
*BOUNDARY
1,1,,0
1,2,,0
1,3,,0
2,1,,0
2,2,,0
2,3,,0
5,1,,0
5,2,,0
5,3,,0
6,1,,0
6,2,,0
6,3,,0
154,1,,0
154,2,,0
154,3,,0
155,1,,0
155,2,,0
155,3,,0
163,1,,0
163,2,,0
** ... 160 like lines cut
*STEP
*FREQUENCY
10
*NODE FILE,GLOBAL=YES
U
*END STEP
