** Generated by Mecway 11.0
*NODE
1,0.3,0.1,0.08
2,0.2,0,0.04
3,0.22,0,0.04
4,0.24,0,0.04
5,0.2,0.1,0.02
6,0.22,0.1,0.02
7,0.24,0.1,0.02
8,0.26,0.1,0.02
9,0.28,0.1,0.02
10,0.3,0.1,0.02
11,0.26,0,0.04
12,0.28,0,0.04
13,0.3,0,0.04
14,0.2,0.06,0.06
15,0.22,0.06,0.06
16,0.24,0.06,0.06
17,0.26,0.06,0.06
18,0.28,0.06,0.06
19,0.3,0.06,0.06
20,0.2,0.08,0.02
** ... 20936 like lines cut
*ELEMENT,TYPE=C3D8
1,414,454,460,421,415,455,21,422
2,658,698,704,665,659,699,22,666
3,902,942,948,909,903,943,23,910
4,1146,1186,1192,1153,1147,1187,24,1154
5,1390,1430,1436,1397,1391,1431,25,1398
6,1634,1674,1680,1641,1635,1675,30,1642
7,1878,1918,1924,1885,1879,1919,31,1886
8,2122,2162,2168,2129,2123,2163,32,2130
9,2366,2406,2412,2373,2367,2407,33,2374
10,2610,2650,2656,2617,2611,2651,34,2618
11,2854,2894,2900,2861,2855,2895,123,2862
12,3098,3138,3144,3105,3099,3139,124,3106
13,3342,3382,3388,3349,3343,3383,125,3350
14,3586,3626,3632,3593,3587,3627,126,3594
15,3830,3870,3876,3837,3831,3871,127,3838
16,4074,4114,4120,4081,4075,4115,135,4082
17,4318,4358,4364,4325,4319,4359,136,4326
18,4562,4602,4608,4569,4563,4603,137,4570
19,4806,4846,4852,4813,4807,4847,138,4814
20,5050,5090,5096,5057,5051,5091,139,5058
** ... 18730 like lines cut
*NSET,NSET=LH
2
5
14
20
29
35
41
44
50
59
62
68
71
77
86
95
104
110
113
122
** ... 656 like lines cut
*NSET,NSET=RH
1
10
13
19
25
28
34
40
49
55
58
67
76
82
85
91
94
100
103
109
** ... 656 like lines cut
*ELSET,ELSET=Default
1
2
3
4
5
6
7
8
9
10
11
12
13
14
15
16
17
18
19
20
** ... 18730 like lines cut
*MATERIAL,NAME=Material
*ELASTIC,TYPE=ISOTROPIC
200000000000,0.3
*SOLID SECTION,ELSET=Default,MATERIAL=Material
*SUBMODEL,TYPE=NODE,INPUT=beam.frd
LH,
RH
*STEP
*STATIC
**STATIC,SOLVER=PARDISO
*BOUNDARY,SUBMODEL,STEP=1
LH,1,3
RH,1,3
*NODE FILE,GLOBAL=YES
U,RF
*EL FILE
S,E,ENER
*END STEP
