*Heading
Modell: Switch
Autor:Anon
Datum: 23.10.2014

**Definition der Knoten
*Node, NSET=NALL
      1,  2.5 , 0.05
      2,  2.5 , 0.
      3,  0.15, 0.05
      4,  0.25, 0.05
      5,  0.35, 0.05
      6,  0.45, 0.05
      7,  0.55, 0.05
      8,  0.65, 0.05
      9,  0.75, 0.05
     10,  0.85, 0.05
     11,  0.95, 0.05
     12,  1.05, 0.05
     13,  1.15, 0.05
     14,  1.25, 0.05
     15,  1.4 , 0.05
     16,  1.5 , 0.05
     17,  1.6 , 0.05
     18,  1.7 , 0.05
     19,  1.8 , 0.05
     20,  1.9 , 0.05
** ... 218 like lines cut
 **Definition der Elemente/Three-node plane stress element    
*Element, type=CPS3 ,ELSET=EALL  
  1,   1, 133,   2
  2, 133,  25, 213
  3,  86,  25, 132
  4,  87,  24, 131
  5,  88,  23, 130
  6,  89,  22, 129
  7,  90,  21, 128
  8,  91,  20, 127
  9,  92,  19, 126
 10,  93,  18, 125
 11,  94,  17, 124
 12,  95,  16, 123
 13,  96,  15, 122
 14,  97,  14, 120
 15,  98,  13, 119
 16,  99,  12, 118
 17, 100,  11, 117
 18, 101,  10, 116
 19, 102,   9, 115
 20, 103,   8, 114
** ... 216 like lines cut

*NSET, NSET=N1
1,2

*NSET, NSET=N12
81,82,83,84,85,207,208,209,210,211,212

*NSET,NSET=SET_LOAD
 46,  47,  48,  49,  50, 160, 161, 162, 163, 164, 165

*NSET,NSET=SET_LOAD2
 59,  60,  61,  62,  63, 179, 180, 181, 182, 183, 184


*BOUNDARY

N1,2
N12,1,2


*MATERIAL,NAME=Steel

*ELASTIC

210000.,.3


