**Generated by: ©K2INP v1.0
**Date & Time : 11 October 2017 @ 12:19:55
**Job name    : tank
**Element     : Quadratic - Reduced
**----------------------------------------------------------------
*NODE, NSET=NALL
1, 3317.13, 3741.21, 10000.0
2, 3741.21, 3317.13, 10000.0
3, 3314.3, 3738.16, 9796.18
4, 3306.08, 3728.8, 9592.7
5, 3293.25, 3712.45, 9389.9
6, 3277.15, 3687.98, 9188.16
7, 3259.79, 3653.71, 8987.96
8, 3244.2, 3607.13, 8790.14
9, 3235.66, 3544.13, 8596.54
10, 3246.23, 3456.14, 8413.46
11, 3323.4, 3323.4, 8294.13
12, 3456.14, 3246.23, 8413.46
13, 3544.13, 3235.66, 8596.54
14, 3607.13, 3244.2, 8790.14
15, 3653.71, 3259.79, 8987.96
16, 3687.98, 3277.15, 9188.16
17, 3712.45, 3293.25, 9389.9
18, 3728.8, 3306.08, 9592.7
19, 3738.16, 3314.3, 9796.18
20, 3747.67, 3747.67, 10000.0
** ... 31016 like lines cut
**----------------------------------------------------------------
*ELEMENT, TYPE=S6, ELSET=S6
116, 173, 83, 81, 10296, 10297, 10298
125, 179, 180, 187, 10299, 10300, 10301
126, 84, 171, 82, 10302, 10303, 10304
213, 176, 175, 182, 10305, 10306, 10307
366, 393, 321, 345, 10308, 10309, 10310
404, 78, 415, 77, 10311, 10312, 10313
409, 79, 80, 418, 10314, 10315, 10316
410, 418, 2, 79, 10317, 10318, 10316
414, 423, 426, 425, 10319, 10320, 10321
415, 425, 422, 423, 10322, 10323, 10321
531, 502, 504, 594, 10324, 10325, 10326
540, 608, 601, 600, 10327, 10328, 10329
541, 503, 592, 505, 10330, 10331, 10332
628, 603, 596, 597, 10333, 10334, 10335
781, 766, 742, 814, 10336, 10337, 10338
819, 500, 836, 501, 10339, 10340, 10341
940, 920, 921, 1012, 10342, 10343, 10344
949, 1026, 1019, 1018, 10345, 10346, 10347
950, 922, 1010, 923, 10348, 10349, 10350
1037, 1021, 1014, 1015, 10351, 10352, 10353
** ... 149 like lines cut
**----------------------------------------------------------------
*ELEMENT, TYPE=S8R, ELSET=S8R
1, 22, 20, 24, 81, 10777, 10778, 10779, 10780
2, 20, 80, 82, 24, 10781, 10782, 10783, 10778
3, 21, 22, 81, 83, 10784, 10780, 10297, 10785
4, 1, 21, 83, 3, 10786, 10785, 10787, 10788
5, 80, 79, 84, 82, 10314, 10789, 10304, 10782
6, 79, 2, 19, 84, 10318, 10790, 10791, 10789
7, 23, 78, 85, 70, 10792, 10793, 10794, 10795
8, 71, 23, 70, 86, 10796, 10795, 10797, 10798
9, 78, 77, 87, 85, 10313, 10799, 10800, 10793
10, 77, 76, 88, 87, 10801, 10802, 10803, 10799
11, 76, 75, 89, 88, 10804, 10805, 10806, 10802
12, 72, 71, 86, 90, 10807, 10798, 10808, 10809
13, 73, 72, 90, 91, 10810, 10809, 10811, 10812
14, 74, 73, 91, 92, 10813, 10812, 10814, 10815
15, 75, 74, 92, 89, 10816, 10815, 10817, 10805
16, 69, 70, 85, 93, 10818, 10794, 10819, 10820
17, 70, 69, 94, 86, 10818, 10821, 10822, 10797
18, 68, 69, 93, 95, 10823, 10820, 10824, 10825
19, 67, 68, 95, 96, 10826, 10825, 10827, 10828
20, 66, 67, 96, 97, 10829, 10828, 10830, 10831
** ... 10267 like lines cut
**----------------------------------------------------------------
*NSET, NSET=BC
23,71,72,73,74,75,76,77,78,414,
415,446,494,495,496,497,498,499,500,501,
835,836,864,912,913,914,915,916,917,918,
919,1253,1254,1282,1330,1331,1332,1333,1334,1335,
1336,1337,1671,1672,1695,1743,1744,1745,1746,1747,
1748,1749,1750,2088,2089,2114,2162,2163,2164,2165,
2166,2167,2168,2169,2507,2508,2533,2581,2582,2583,
2584,2585,2586,2587,2588,2924,2925,2951,2999,3000,
3001,3002,3003,3004,3005,3006,3344,3345,10792,10796,
10807,11575,10810,11571,10813,10816,11572,10804,10801,11573,
10313,10312,10311,11574,11603,11606,11617,12384,11620,12380,
11623,11626,12381,11615,11612,12382,10339,10341,10340,12383,
12411,12414,13189,12418,12421,13190,10357,10358,10359,12426,
12429,12432,13186,12434,13187,13188,13213,13216,13227,13994,
13230,13990,13233,13236,13991,13225,13222,13992,10380,10382,
10381,13993,14011,14015,14797,14018,14021,14798,10398,10399,
10400,14026,14029,14032,14795,14035,14794,14796,14819,14823,
15605,14843,14840,15602,14837,15603,14834,10419,10421,10420,
14829,14826,15606,15604,15626,15630,10440,10442,10441,15635,
15638,16407,15650,15647,16406,15644,15641,16405,16409,16408,
10463,10464,16431,16437,16440,17218,16443,17216,16446,16449,
17215,16452,16455,17214,10465,17217
**----------------------------------------------------------------
*ELSET, ELSET=Kurealt
3283,3284,3285,3286,3287,3288,3289,3290
3291,3292,3293,3294,3295,3296,3297,3298
3299,3300,3301,3302,3303,3304,3305,3306
3307,3308,3309,3310,3311,3312,3313,3314
3315,3316,3317,3318,3319,3320,3321,3322
3323,3324,3325,3326,3327,3328,3329,3330
3331,3332,3333,3334,3335,3336,3337,3338
3339,3340,3341,3342,3343,3344,3345,3346
3347,3348,3349,3350,3351,3352,3353,3354
3355,3356,3357,3358,3359,3360,3361,3362
3363,3364,3365,3366,3367,3368,3369,3370
3371,3372,3373,3374,3375,3376,3377,3378
3379,3380,3381,3382,3383,3384,3385,3386
3387,3388,3389,3390,3391,3392,3393,3394
3395,3396,3397,3398,3399,3400,3401,3402
3403,3404,3405,3406,3407,3408,3409,3410
3411,3412,3413,3414,3415,3416,3417,3418
3419,3420,3421,3422,3423,3424,3425,3426
3427,3428,3429,3430,3431,3432,3433,3434
3435,3436,3437,3438,3439,3440,3441,3442
** ... 425 like lines cut
*ELSET, ELSET=ayak
1,2,3,4,5,6,7,8
9,10,11,12,13,14,15,16
17,18,19,20,21,22,23,24
25,26,27,28,29,30,31,32
33,34,35,36,37,38,39,40
41,42,43,44,45,46,47,48
49,50,51,52,53,54,55,56
57,58,59,60,61,62,63,64
65,66,67,68,69,70,71,72
73,74,75,76,77,78,79,80
81,82,83,84,85,86,87,88
89,90,91,92,93,94,95,96
97,98,99,100,101,102,103,104
105,106,107,108,109,110,111,112
113,114,115,116,117,118,119,120
121,122,123,124,125,126,127,128
129,130,131,132,133,134,135,136
137,138,139,140,141,142,143,144
145,146,147,148,149,150,151,152
153,154,155,156,157,158,159,160
** ... 391 like lines cut
*ELSET, ELSET=kureust
6841,6842,6843,6844,6845,6846,6847,6848
6849,6850,6851,6852,6853,6854,6855,6856
6857,6858,6859,6860,6861,6862,6863,6864
6865,6866,6867,6868,6869,6870,6871,6872
6873,6874,6875,6876,6877,6878,6879,6880
6881,6882,6883,6884,6885,6886,6887,6888
6889,6890,6891,6892,6893,6894,6895,6896
6897,6898,6899,6900,6901,6902,6903,6904
6905,6906,6907,6908,6909,6910,6911,6912
6913,6914,6915,6916,6917,6918,6919,6920
6921,6922,6923,6924,6925,6926,6927,6928
6929,6930,6931,6932,6933,6934,6935,6936
6937,6938,6939,6940,6941,6942,6943,6944
6945,6946,6947,6948,6949,6950,6951,6952
6953,6954,6955,6956,6957,6958,6959,6960
6961,6962,6963,6964,6965,6966,6967,6968
6969,6970,6971,6972,6973,6974,6975,6976
6977,6978,6979,6980,6981,6982,6983,6984
6985,6986,6987,6988,6989,6990,6991,6992
6993,6994,6995,6996,6997,6998,6999,7000
** ... 432 like lines cut
**----------------------------------------------------------------
*Shell Section, elset=Kurealt, material=Material-1
6.
*Shell Section, elset=Kureust, material=Material-1
6.
*Shell Section, elset=ayak, material=Material-1
6.
*Material, name=Material-1
*Density
7.85e-09,
*Elastic
210000., 0.3
*STEP
*STATIC
*DLOAD
S6,GRAV,9810,0.,0.,-1.
S8R,GRAV,9810,0.,0.,-1.
Kurealt,P,1.
Kureust,P,1.
*BOUNDARY
BC,1,1,0
BC,2,2,0
BC,3,3,0
*NODE FILE, OUTPUT=3D
U
*EL FILE
S,
*END STEP
