*NODE,NSET=Nall
1,1,0,0
2,0,1,0
3,0,0,1
4,0.384900179459751,0.384900179459751,1.38490017945975
5,0.769800358919501,0.769800358919501,1.7698003589195
6,1.15470053837925,1.15470053837925,2.15470053837925
7,0.384900179459751,1.38490017945975,0.384900179459751
8,0.769800358919501,1.7698003589195,0.769800358919501
9,1.15470053837925,2.15470053837925,1.15470053837925
10,1.38490017945975,0.384900179459751,0.384900179459751
11,1.7698003589195,0.769800358919501,0.769800358919501
12,2.15470053837925,1.15470053837925,1.15470053837925
*ELEMENT,TYPE=C3D6
1,5,11,8,6,12,9
*ELEMENT,TYPE=C3D6
2,3,1,2,4,10,7
*ELEMENT,TYPE=C3D6
3,4,10,7,5,11,8
*ELSET,ELSET=Eall
1,2,3
*MATERIAL,NAME=mat
*ELASTIC
200e9,0.3
*SOLID SECTION,ELSET=Eall,MATERIAL=mat
*NSET,NSET=ring
6,9,12
*BOUNDARY
ring,1,1
ring,2,2
ring,3,3
*BOUNDARY
1,3,,0.3
*STEP
*STATIC
*NODE FILE,NSET=Nall, GLOBAL=YES, OUTPUT=2D
U
*END STEP