*Node, NSET=Nall
1, -2.75546e-14, 750, -150
2, -2.38806e-14, 750, -130
3, 9.18485e-15, -750, 150
4, -2.75546e-14, -750, -150
5, -2.38806e-14, -690, -130
6, 7.9602e-15, -690, 130
7, -130, 4.10783e-15, 93.2738
8, -130, 3.9968e-15, 74.8331
9, 0, 180, -150
10, 0, -180, -150
11, -110, 3.21965e-15, 116.19
12, 7.9602e-15, 750, 130
13, 9.18485e-15, 750, 150
14, 0, 180, -130
15, 0, -180, -130
16, 1.53072e-14, -130, 150
17, -2.5091e-14, -130, 160
18, 0, -180, 150
19, 4.44089e-15, -110, 160
20, 0, -180, 130
** ... 3306 like lines cut
*Element, TYPE=C3D4, ELSET=Eall
7462, 1580, 1602, 1288, 1581, 
7463, 2880, 3302, 2965, 775, 
7464, 2135, 557, 604, 603, 
7465, 1927, 1926, 493, 2429, 
7466, 1723, 1790, 963, 1713, 
7467, 2141, 2928, 3041, 3042, 
7468, 2928, 2141, 3041, 2170, 
7469, 1554, 1284, 1555, 1567, 
7470, 1585, 1567, 1568, 1287, 
7471, 2914, 2468, 2915, 3318, 
7472, 2058, 2421, 2451, 2097, 
7473, 157, 922, 873, 1628, 
7474, 382, 157, 873, 1628, 
7475, 148, 373, 868, 1620, 
7476, 2867, 2790, 3217, 2789, 
7477, 1839, 498, 3322, 3320, 
7478, 2795, 2856, 2794, 3229, 
7479, 521, 3318, 1837, 3320, 
7480, 393, 1620, 1639, 868, 
7481, 392, 2274, 1879, 168, 
** ... 9114 like lines cut



***********************************************************
** Element sets for materials and FEM element type (solid, shell, beam)
** written by write_element_sets_material_and_femelement_type function
*ELSET,ELSET=MechanicalMaterialSolid
Eall

***********************************************************
** Node set for fixed constraint
** written by write_node_sets_constraints_fixed function

***********************************************************
** Node sets for prescribed displacement constraint
** written by write_node_sets_constraints_displacement function
*NSET,NSET=FemConstraintDisplacement
16,
17,
18,
19,
20,
21,
22,
23,
33,
34,
519,
528,
529,
573,
574,
575,
576,
577,
578,
579,
** ... 496 like lines cut
*NSET,NSET=FemConstraintDisplacement001
33,
34,
35,
36,
733,
734,
735,
736,
737,
738,
739,
740,
741,
742,
743,
744,
745,
746,
747,
748,
** ... 41 like lines cut
*NSET,NSET=FemConstraintDisplacement002
1,
2,
12,
13,
197,
198,
199,
200,
201,
202,
203,
204,
205,
206,
207,
208,
209,
210,
211,
212,
** ... 27 like lines cut



***********************************************************
** Node set for PlaneRotation constraint
** written by write_node_sets_constraints_planerotation function
*NSET,NSET=FemConstraintPlaneRotation
99,
100,
101,
102,
103,
104,
105,
106,
836,
837,
838,
839,
840,

***********************************************************
** Node sets for temperature constraint
** written by write_temperature_nodes function

***********************************************************
** Node sets for loads
** written by write_node_sets_constraints_force function

***********************************************************
** Materials
** written by write_materials function
** Young's modulus unit is MPa = N/mm2
** Density's unit is t/mm^3
** Thermal conductivity unit is kW/mm/K = t*mm/K*s^3
** Specific Heat unit is kJ/t/K = mm^2/s^2/K
**FreeCAD material name: Steel
*MATERIAL, NAME=MechanicalMaterial
*ELASTIC 
200000 ,  0.300
*DENSITY 
7.900e-09, 
*CONDUCTIVITY 
50 , 
*EXPANSION 
1.2e-05 , 
*SPECIFIC HEAT 
5e+08 , 

***********************************************************
** Coupled temperature displacement analysis
** written by write_initialtemperature function
*INITIAL CONDITIONS,TYPE=TEMPERATURE
Nall,300.0

***********************************************************
** Sections
** written by write_femelementsets function
*SOLID SECTION, ELSET=MechanicalMaterialSolid, MATERIAL=MechanicalMaterial

***********************************************************
** PlaneRotation Constaints
** written by write_constraints_planerotation function
*MPC
PLANE,FemConstraintPlaneRotation


***********************************************************
** One step is needed to calculate the mechanical analysis of FreeCAD
** loads are applied quasi-static, means without involving the time dimension
** written by write_step_begin_thermomech function
*STEP,INC=2000

***********************************************************
** Coupled temperature displacement analysis
** written by write_thermomech function
*COUPLED TEMPERATURE-DISPLACEMENT,STEADY STATE
1.0,1.0

***********************************************************
** Constaints
** written by write_constraints_fixed function

***********************************************************
** Displacement constraint applied
** written by write_constraints_displacement function
*BOUNDARY
FemConstraintDisplacement,1
*BOUNDARY
FemConstraintDisplacement001,3
*BOUNDARY
FemConstraintDisplacement002,2


***********************************************************
** Fixed temperature constraint applied
** written by write_temperature function

***********************************************************
** Convective heat transfer (heat flux)
** written by write_heatflux function
*FILM
** Heat flux on face Face10
7465,F1,500.0,0.1
7516,F2,500.0,0.1
7518,F1,500.0,0.1
7536,F2,500.0,0.1
7550,F4,500.0,0.1
7562,F1,500.0,0.1
7609,F1,500.0,0.1
7689,F3,500.0,0.1
7695,F1,500.0,0.1
7722,F3,500.0,0.1
7729,F3,500.0,0.1
7748,F4,500.0,0.1
7772,F2,500.0,0.1
7775,F1,500.0,0.1
7780,F2,500.0,0.1
7813,F1,500.0,0.1
7858,F1,500.0,0.1
7948,F2,500.0,0.1
7968,F3,500.0,0.1
7981,F4,500.0,0.1
** ... 592 like lines cut
*FILM
** Heat flux on face Face19
7473,F1,300.0,0.01
7526,F1,300.0,0.01
7575,F2,300.0,0.01
7580,F1,300.0,0.01
7598,F1,300.0,0.01
7599,F4,300.0,0.01
7618,F1,300.0,0.01
7629,F2,300.0,0.01
7630,F3,300.0,0.01
7648,F2,300.0,0.01
7662,F2,300.0,0.01
7670,F3,300.0,0.01
7671,F1,300.0,0.01
7677,F3,300.0,0.01
7681,F4,300.0,0.01
7682,F1,300.0,0.01
7690,F2,300.0,0.01
7697,F3,300.0,0.01
7702,F3,300.0,0.01
7703,F2,300.0,0.01
** ... 485 like lines cut
** Heat flux on face Face17
7487,F3,300.0,0.01
7495,F1,300.0,0.01
7541,F2,300.0,0.01
7543,F4,300.0,0.01
7547,F2,300.0,0.01
7593,F3,300.0,0.01
7622,F1,300.0,0.01
7651,F1,300.0,0.01
7779,F1,300.0,0.01
7792,F2,300.0,0.01
7796,F2,300.0,0.01
7828,F3,300.0,0.01
7840,F3,300.0,0.01
7880,F3,300.0,0.01
7885,F1,300.0,0.01
7889,F4,300.0,0.01
7897,F3,300.0,0.01
7898,F3,300.0,0.01
7900,F2,300.0,0.01
7914,F3,300.0,0.01
** ... 638 like lines cut
** Heat flux on face Face4
7476,F2,300.0,0.01
7478,F1,300.0,0.01
7484,F1,300.0,0.01
7500,F3,300.0,0.01
7506,F3,300.0,0.01
7512,F3,300.0,0.01
7529,F2,300.0,0.01
7531,F1,300.0,0.01
7534,F2,300.0,0.01
7537,F1,300.0,0.01
7551,F2,300.0,0.01
7552,F3,300.0,0.01
7558,F4,300.0,0.01
7560,F3,300.0,0.01
7565,F3,300.0,0.01
7573,F2,300.0,0.01
7586,F1,300.0,0.01
7603,F2,300.0,0.01
7639,F2,300.0,0.01
7649,F4,300.0,0.01
** ... 878 like lines cut
** Heat flux on face Face9
7486,F2,300.0,0.01
7514,F2,300.0,0.01
7519,F2,300.0,0.01
7523,F1,300.0,0.01
7647,F1,300.0,0.01
7882,F1,300.0,0.01
7928,F4,300.0,0.01
7957,F2,300.0,0.01
8006,F4,300.0,0.01
8031,F3,300.0,0.01
8359,F2,300.0,0.01
8440,F1,300.0,0.01
8490,F2,300.0,0.01
8505,F4,300.0,0.01
8550,F3,300.0,0.01
8574,F2,300.0,0.01
8577,F1,300.0,0.01
8578,F2,300.0,0.01
8584,F2,300.0,0.01
8601,F4,300.0,0.01
** ... 356 like lines cut
** Heat flux on face Face16
7462,F2,300.0,0.01
7469,F4,300.0,0.01
7470,F1,300.0,0.01
7483,F4,300.0,0.01
7498,F4,300.0,0.01
7505,F2,300.0,0.01
7510,F3,300.0,0.01
7528,F4,300.0,0.01
7535,F4,300.0,0.01
7538,F4,300.0,0.01
7540,F2,300.0,0.01
7549,F2,300.0,0.01
7563,F2,300.0,0.01
7566,F4,300.0,0.01
7578,F3,300.0,0.01
7590,F2,300.0,0.01
7591,F4,300.0,0.01
7592,F4,300.0,0.01
7596,F3,300.0,0.01
7604,F4,300.0,0.01
** ... 650 like lines cut
** Heat flux on face Face6
7499,F1,300.0,0.01
7555,F2,300.0,0.01
7584,F2,300.0,0.01
7619,F1,300.0,0.01
7641,F1,300.0,0.01
7707,F3,300.0,0.01
7747,F4,300.0,0.01
7800,F4,300.0,0.01
7852,F2,300.0,0.01
7912,F1,300.0,0.01
7952,F4,300.0,0.01
8004,F3,300.0,0.01
8030,F1,300.0,0.01
8035,F3,300.0,0.01
8050,F2,300.0,0.01
8059,F4,300.0,0.01
8068,F2,300.0,0.01
8071,F2,300.0,0.01
8077,F2,300.0,0.01
8079,F1,300.0,0.01
** ... 466 like lines cut
** Heat flux on face Face3
7463,F4,300.0,0.01
7467,F3,300.0,0.01
7482,F1,300.0,0.01
7485,F3,300.0,0.01
7488,F3,300.0,0.01
7493,F1,300.0,0.01
7496,F2,300.0,0.01
7503,F3,300.0,0.01
7504,F2,300.0,0.01
7507,F3,300.0,0.01
7513,F3,300.0,0.01
7515,F3,300.0,0.01
7520,F4,300.0,0.01
7521,F3,300.0,0.01
7525,F1,300.0,0.01
7532,F4,300.0,0.01
7542,F2,300.0,0.01
7544,F3,300.0,0.01
7567,F2,300.0,0.01
7572,F3,300.0,0.01
** ... 952 like lines cut
** Heat flux on face Face14
7466,F2,300.0,0.01
7480,F1,300.0,0.01
7494,F3,300.0,0.01
7564,F4,300.0,0.01
7579,F2,300.0,0.01
7589,F3,300.0,0.01
7597,F4,300.0,0.01
7605,F1,300.0,0.01
7612,F4,300.0,0.01
7631,F3,300.0,0.01
7633,F1,300.0,0.01
7664,F4,300.0,0.01
7679,F1,300.0,0.01
7680,F1,300.0,0.01
7688,F1,300.0,0.01
7692,F4,300.0,0.01
7694,F4,300.0,0.01
7699,F3,300.0,0.01
7706,F2,300.0,0.01
7713,F1,300.0,0.01
** ... 463 like lines cut

***********************************************************
** Node loads
** written by write_constraints_force function
*CLOAD

***********************************************************
** Element + CalculiX face + load in [MPa]
** written by write_constraints_pressure function
*DLOAD
** Load on face Face20
7669,P4,20.0
8301,P4,20.0
8324,P4,20.0
8328,P4,20.0
8330,P3,20.0
9081,P4,20.0
9520,P2,20.0
9821,P3,20.0
9852,P4,20.0
10142,P3,20.0
10143,P3,20.0
10248,P4,20.0
11288,P2,20.0
11411,P2,20.0
13698,P4,20.0
13708,P2,20.0
13837,P3,20.0
13844,P3,20.0
14238,P3,20.0
14239,P3,20.0
** ... 7 like lines cut
** Load on face Face14
7466,P2,20.0
7480,P1,20.0
7494,P3,20.0
7564,P4,20.0
7579,P2,20.0
7589,P3,20.0
7597,P4,20.0
7605,P1,20.0
7612,P4,20.0
7631,P3,20.0
7633,P1,20.0
7664,P4,20.0
7679,P1,20.0
7680,P1,20.0
7688,P1,20.0
7692,P4,20.0
7694,P4,20.0
7699,P3,20.0
7706,P2,20.0
7713,P1,20.0
** ... 463 like lines cut
** Load on face Face6
7499,P1,20.0
7555,P2,20.0
7584,P2,20.0
7619,P1,20.0
7641,P1,20.0
7707,P3,20.0
7747,P4,20.0
7800,P4,20.0
7852,P2,20.0
7912,P1,20.0
7952,P4,20.0
8004,P3,20.0
8030,P1,20.0
8035,P3,20.0
8050,P2,20.0
8059,P4,20.0
8068,P2,20.0
8071,P2,20.0
8077,P2,20.0
8079,P1,20.0
** ... 466 like lines cut
** Load on face Face16
7462,P2,20.0
7469,P4,20.0
7470,P1,20.0
7483,P4,20.0
7498,P4,20.0
7505,P2,20.0
7510,P3,20.0
7528,P4,20.0
7535,P4,20.0
7538,P4,20.0
7540,P2,20.0
7549,P2,20.0
7563,P2,20.0
7566,P4,20.0
7578,P3,20.0
7590,P2,20.0
7591,P4,20.0
7592,P4,20.0
7596,P3,20.0
7604,P4,20.0
** ... 650 like lines cut
** Load on face Face3
7463,P4,20.0
7467,P3,20.0
7482,P1,20.0
7485,P3,20.0
7488,P3,20.0
7493,P1,20.0
7496,P2,20.0
7503,P3,20.0
7504,P2,20.0
7507,P3,20.0
7513,P3,20.0
7515,P3,20.0
7520,P4,20.0
7521,P3,20.0
7525,P1,20.0
7532,P4,20.0
7542,P2,20.0
7544,P3,20.0
7567,P2,20.0
7572,P3,20.0
** ... 952 like lines cut

***********************************************************
** Outputs --> frd file
** written by write_outputs_types function
*NODE FILE
U, NT
*EL FILE
S, E
** outputs --> dat file
*NODE PRINT , NSET=Nall 
U 
*EL PRINT , ELSET=Eall 
S 

***********************************************************
** written by write_step_end function
*END STEP 

***********************************************************
** CalculiX Input file
** written by write_footer function
**   written by    --> FreeCAD 0.16.7102 (Git)
**   written on    --> Thu Mar 31 12:09:54 2016
**   file name     --> presentation.fcstd
**   analysis name --> MechanicalAnalysis
**
**
**
**   Units
**
**   Geometry (mesh data)        --> m
**   Materials (Young's modulus) --> N/m2 = MPa
**   Loads (nodal loads)         --> N
**
