*HEADING
Model: TEST Date: 23/02/2010  23:03:22
**
** COORDINATES
**
*NODE, NSET=NALL
       1,   20.000000    ,   0.0000000    ,   0.0000000
       2,   0.0000000    ,   20.000000    ,   0.0000000
       3,   30.000000    ,   0.0000000    ,   0.0000000
       4,   0.0000000    ,   30.000000    ,   0.0000000
       5,   19.828897    ,   2.6105238    ,   0.0000000
       6,   19.318517    ,   5.1763809    ,   0.0000000
       7,   18.477591    ,   7.6536686    ,   0.0000000
       8,   17.320508    ,   10.000000    ,   0.0000000
       9,   15.867067    ,   12.175229    ,   0.0000000
      10,   14.142136    ,   14.142136    ,   0.0000000
      11,   12.175229    ,   15.867067    ,   0.0000000
      12,   10.000000    ,   17.320508    ,   0.0000000
      13,   7.6536686    ,   18.477591    ,   0.0000000
      14,   5.1763809    ,   19.318517    ,   0.0000000
      15,   2.6105238    ,   19.828897    ,   0.0000000
      16,   29.743346    ,   3.9157858    ,   0.0000000
      17,   28.977775    ,   7.7645714    ,   0.0000000
      18,   27.716386    ,   11.480503    ,   0.0000000
      19,   25.980762    ,   15.000000    ,   0.0000000
      20,   23.800600    ,   18.262843    ,   0.0000000
** ... 36 like lines cut
**
** TRANSFORMATIONS
**
*NSET, NSET=T1
       1,       2,       3,       4,      27,      28,      29,      30,
      31,      32
*TRANSFORM, NSET=T1    , TYPE=C
  0.0000    ,  0.0000    ,  0.0000    ,  0.0000    ,  0.0000    ,  10.000
**
** ELEMENT TOPOLOGY
**
*Solid Section, elset=E1   , material=M1
   1.000
*ELEMENT, TYPE=CPS8  ,ELSET=E1
       1,       1,      31,      33,       6,      30,      38,      39,       5
       2,      31,       3,      17,      33,      32,      16,      40,      38
       3,      33,      17,      19,      34,      40,      18,      41,      42
       4,      34,      19,      21,      35,      41,      20,      43,      44
       5,      35,      21,      23,      36,      43,      22,      45,      46
       6,      36,      23,      25,      37,      45,      24,      47,      48
       7,      37,      25,       4,      28,      47,      26,      29,      49
       8,      14,      37,      28,       2,      50,      49,      27,      15
       9,      12,      36,      37,      14,      51,      48,      50,      13
      10,      10,      35,      36,      12,      52,      46,      51,      11
      11,       8,      34,      35,      10,      53,      44,      52,       9
      12,       6,      33,      34,       8,      39,      42,      53,       7
**
** MATERIAL PROPERTIES
**
**
** M1
*MATERIAL, NAME=M1
*ELASTIC, TYPE=ISOTROPIC
    200000.    ,  0.30000
*DENSITY
   0.785000E-08,
*EXPANSION, TYPE=ISO
   0.120000E-04,
**
** EARTH SPRINGS
**
**
** FIXED FREEDOMS
**
*BOUNDARY
       1, 2, 3
       2, 3
       3, 2, 3
       4, 3
      27, 3
      28, 3
      29, 3
      30, 2, 3
      31, 2, 3
      32, 2, 3
*INITIAL CONDITIONS,TYPE=TEMPERATURE
Nall, 0.0
**
** LOADING
**
*Step
**Case    1  p1
*Static, SOLVER=SPOOLES
1.0, 1.0, 1e-05, 1.0
**
** LOADS
**
**
**
**  Load  Case
**     1   1 Line  L1   , traction      0.0 , Pressure  1.
**
*Cload,OP=NEW
      1,1,  0.87761913
      1,2,  0.48793601E-03
      2,1,  0.87761913
      2,2, -0.48793601E-03
      5,1,   3.4509205
      5,2,  0.45432230
      6,1,   1.6954300
      6,2,  0.45428909
      7,1,   3.2157460
      7,2,   1.3320056
      8,1,   1.5200809
      8,2,  0.87761913
      9,1,   2.7614237
      9,2,   2.1189149
     10,1,   1.2411409
     10,2,   1.2411409
     11,1,   2.1189149
     11,2,   2.7614237
     12,1,  0.87761913
     12,2,   1.5200809
** ... 6 like lines cut
** OUTPUT REQUESTS
**
*El Print
S
*Node Print
U, RF
*NODE FILE
U, RF
*EL FILE,POSITION=AVERAGED AT NODES,GLOBAL=YES
S
*End Step
