** Generated by Mecway 11.0
*NODE
1,0.05,0.05,0
2,-0.05,0.05,0
3,0.05,-0.05,0
4,-0.05,-0.05,0
5,0.04,0.05,0
6,0.03,0.05,0
7,0.02,0.05,0
8,0.01,0.05,0
9,0,0.05,0
10,-0.01,0.05,0
11,-0.02,0.05,0
12,-0.03,0.05,0
13,-0.04,0.05,0
14,0.05,0.04,0
15,0.04,0.04,0
16,0.03,0.04,0
17,0.02,0.04,0
18,0.01,0.04,0
19,-3.469446951954E-18,0.04,0
20,-0.01,0.04,0
** ... 1315 like lines cut
*ELEMENT,TYPE=C3D8
1,100,101,112,111,332,322,212,222
2,332,322,212,222,333,323,213,223
3,333,323,213,223,334,324,214,224
4,334,324,214,224,335,325,215,225
5,335,325,215,225,336,326,216,226
6,336,326,216,226,337,327,217,227
7,337,327,217,227,338,328,218,228
8,338,328,218,228,339,329,219,229
9,339,329,219,229,340,330,220,230
10,340,330,220,230,341,331,221,231
11,102,103,113,3,312,302,202,1302
12,312,302,202,1302,313,303,203,1303
13,313,303,203,1303,314,304,204,1304
14,314,304,204,1304,315,305,205,1305
15,315,305,205,1305,316,306,206,1306
16,316,306,206,1306,317,307,207,1307
17,317,307,207,1307,318,308,208,1308
18,318,308,208,1308,319,309,209,1309
19,319,309,209,1309,320,310,210,1310
20,320,310,210,1310,321,311,211,1311
** ... 980 like lines cut
*ELEMENT,TYPE=SPRINGA
1001,1332,1333
1002,1332,1334
1003,1332,1335
*NSET,NSET=node-Loc
1332
*NSET,NSET=node-X
1333
*NSET,NSET=node-Y
1334
*NSET,NSET=node-Z
1335
*NSET,NSET=node-Ind-X
171
661
761
1251
1301
1311
1321
1331
*NSET,NSET=node-Reaction-Fr-RH
1
*NSET,NSET=node-Reaction-Fr-LH
2
*NSET,NSET=node-Reaction-Rr-LH
4
*NSET,NSET=node-Reaction-Rr-RH
3
*NSET,NSET=node-Ind-Y
131
181
321
551
871
1101
1241
1291
*NSET,NSET=node-Ind-Z
161
211
221
651
771
1201
1211
1261
*ELSET,ELSET=spring-elem
1001
1002
1003
*ELSET,ELSET=Default
1
2
3
4
5
6
7
8
9
10
11
12
13
14
15
16
17
18
19
20
** ... 980 like lines cut
*ELSET,ELSET=1
1001
*ELSET,ELSET=2
1002
*ELSET,ELSET=3
1003
*ELSET,ELSET=EAll
1
2
3
4
5
6
7
8
9
10
11
12
13
14
15
16
17
18
19
20
** ... 983 like lines cut
*MATERIAL,NAME=Material
*ELASTIC,TYPE=ISOTROPIC
200000000000,0.3
*DENSITY
7850
*SOLID SECTION,ELSET=Default,MATERIAL=Material
*BOUNDARY
1,1,,0
1,2,,0
1,3,,0
2,1,,0
2,2,,0
2,3,,0
3,1,,0
3,2,,0
3,3,,0
4,1,,0
4,2,,0
4,3,,0
***********************************
******  R I G I D  B O D Y   ******
***********************************
*NSET,NSET=RIGID-X
node-X,node-Ind-X
*NSET,NSET=RIGID-Y
node-Y,node-Ind-Y
*NSET,NSET=RIGID-Z
node-Z,node-Ind-Z
*RIGID BODY,NSET=RIGID-X
*RIGID BODY,NSET=RIGID-Y
*RIGID BODY,NSET=RIGID-Z
***********************************
*SPRING,ELSET=spring-elem

1000000000.0
*ELEMENT,TYPE=MASS,ELSET=Mass-Point
1004,1332
*MASS,ELSET=Mass-Point
1.0
**
*STEP
*STATIC
*DLOAD
EAll,GRAV,0,1,0,0
*DLOAD
EAll,GRAV,0,0,1,0
*DLOAD
EAll,GRAV,-9.81,0,0,1
*NODE FILE,GLOBAL=YES
U,RF
*EL FILE
S,E,ENER
*DLOAD
Mass-Point,GRAV,-9.81,0,0,1
*NODE PRINT,NSET=node-Reaction-Fr-LH
RF
*NODE PRINT,NSET=node-Reaction-Fr-RH
RF
*NODE PRINT,NSET=node-Reaction-Rr-LH
RF
*NODE PRINT,NSET=node-Reaction-Rr-RH
RF
*END STEP
