**Mesh**********************************************************************************
*NODE
         1,  5.0025025000004,  4.9949999999999,  0.0
         2,  5.0025025000004,  4.9975000000004,  0.0
         3,  5.0025025000004,  5.0            ,  0.0
         4,  5.0025025000004,  5.0024999999996,  0.0
         5,  5.0025025000004,  5.0050000000001,  0.0
         6,  5.0000024999999,  5.0050000000001,  0.0
         7,  4.9975025000003,  5.0050000000001,  0.0
         8,  4.9950024999998,  5.0050000000001,  0.0
         9,  4.9925024999993,  5.0050000000001,  0.0
        10,  4.9925024999993,  5.0024999999996,  0.0
        11,  4.9925024999993,  5.0            ,  0.0
        12,  4.9925024999993,  4.9975000000004,  0.0
        13,  4.9925024999993,  4.9949999999999,  0.0
        14,  4.9950024999998,  4.9949999999999,  0.0
        15,  4.9975025000003,  4.9949999999999,  0.0
        16,  5.0000024999999,  4.9949999999999,  0.0
        17,  4.9950024999998,  5.0            ,  0.0
        18,  4.9975025000003,  5.0            ,  0.0
        19,  5.0000024999999,  5.0            ,  0.0
        20,  4.9975025000003,  5.0024999999996,  0.0
** ... 6255 like lines cut
*ELEMENT,TYPE=C3D8,ELSET=part_1
         1,      6179,      6178,      6177,      6176,      6175,      6174,      6173,
      6172
         2,      2098,      2099,      1100,      1101,      2094,      2095,      1096,
      1097
         3,      2102,      2103,      1104,      1105,      2098,      2099,      1100,
      1101
         4,      3290,      3291,      5542,      5543,      3286,      3287,      5538,
      5539
         5,      3286,      3287,      5538,      5539,      3282,      3283,      5534,
      5535
         6,      3110,      3111,      5362,      5363,      3106,      3107,      5358,
      5359
         7,      3114,      3115,      5366,      5367,      3110,      3111,      5362,
      5363
         8,      3118,      3119,      5370,      5371,      3114,      3115,      5366,
      5367
         9,      3122,      3123,      5374,      5375,      3118,      3119,      5370,
      5371
        10,      3126,      3127,      5378,      5379,      3122,      3123,      5374,
      5375
** ... 7756 like lines cut
*ELEMENT,TYPE=C3D8,ELSET=part_2
      3889,      5571,      5570,      5569,      5568,      5567,      5566,      5565,
      5564
      3890,      5568,      5569,      4923,      4922,      5564,      5565,      4921,
      4920
      3891,      5570,      4423,      4422,      5569,      5566,      4421,      4420,
      5565
      3892,      5569,      4422,      4099,      4923,      5565,      4420,      4098,
      4921
      3893,      3321,      3320,      3319,      3318,      3317,      3316,      3315,
      3314
      3894,      2321,      2320,      2319,      2318,      2317,      2316,      2315,
      2314
      3895,      1321,      1320,      1319,      1318,      1317,      1316,      1315,
      1314
      3896,      2320,      3318,      5571,      2319,      2316,      3314,      5567,
      2315
      3897,      3319,       849,      4423,      5570,      3315,       848,      4421,
      5566
      3898,       599,      3321,      3318,      2320,       598,      3317,      3314,
      2316
** ... 204 like lines cut
*NSET, NSET=ground
        26,       276,       526,       776,      1026,      1027,      1028,      1029,
      2026,      2027,      2028,      2029,      3026,      3027,      3028,      3029,
      4026,      4276,      4277,      4776,      4777,      5276,      5277,      5278,
      5279,
*NSET, NSET=source
         1,         2,         3,         4,         5,         6,         7,         8,
         9,        10,        11,        12,        13,        14,        15,        16,
        17,        18,        19,        20,        21,        22,        23,        24,
        25,
**Sections******************************************************************************
*SOLID SECTION, ELSET=part_2, MATERIAL=part_2
**
*SOLID SECTION, elset=part_1,  MATERIAL=part_1
**Materials******************************************************************************
*MATERIAL, NAME=part_2
*CONDUCTIVITY
1e-16
*MATERIAL, NAME=part_1
*CONDUCTIVITY
500000
**Curves********************************************************************************
*Amplitude, name=load
0.,              1.,
1,               1.,
**Solution controls********************************************************************
*INITIAL CONDITIONS,TYPE=TEMPERATURE
source,11,11,1
ground,11,11,0
**PHYSICAL CONSTANTS,ABSOLUTE ZERO=-273.15,STEFAN BOLTZMANN=5.669E-8
*STEP, NLGEOM
*HEAT TRANSFER,STEADY STATE
**,Solver=Iterative cholesky
1.0, 1.0, 1.0000E-08, 0.05
**Boundaries***************************************************************************
*BOUNDARY, Amplitude = load
source,11,11,1
ground,11,11,0
**Output********************************************************************************
*Node Output
HFL,RFL,NT
*END STEP