**
**   Structure: One element test. CAX6;
**   Test objective: *INITIAL CONDITIONS,TYPE=PLASTIC STRAIN
**
*NODE, NSET=Nall
       1,  0.00000e+00,  0.00000e+00,  0.00000e+00
       2,  1.00000e+00,  0.00000e+00,  0.00000e+00
       3,  0.00000e+00,  1.00000e+00,  0.00000e+00
       4,  0.50000e+00,  0.00000e+00,  0.00000e+00
       5,  0.50000e+00,  0.50000e+00,  0.00000e+00
       6,  0.00000e+00,  0.50000e+00,  0.00000e+00
*ELEMENT, TYPE=CAX6, ELSET=Eall
     1,     1,     2,     3,     4,     5,     6
*NSET,NSET=FIX
1
*BOUNDARY
FIX,1,2
*INITIAL CONDITIONS,TYPE=STRESS
1,1,700.0,.0,.0,0.,0.,0.
1,2,700.0,.0,.0,0.,0.,0.
1,3,700.0,.0,.0,0.,0.,0.
1,4,700.0,.0,.0,0.,0.,0.
1,5,700.0,.0,.0,0.,0.,0.
1,6,700.0,.0,.0,0.,0.,0.
1,7,700.0,.0,.0,0.,0.,0.
1,8,700.0,.0,.0,0.,0.,0.
1,9,700.0,.0,.0,0.,0.,0.
*INITIAL CONDITIONS,TYPE=PLASTIC STRAIN
1,1,.01,.0,.0,0.,0.,0.
1,2,.01,.0,.0,0.,0.,0.
1,3,.01,.0,.0,0.,0.,0.
1,4,.01,.0,.0,0.,0.,0.
1,5,.01,.0,.0,0.,0.,0.
1,6,.01,.0,.0,0.,0.,0.
1,7,.01,.0,.0,0.,0.,0.
1,8,.01,.0,.0,0.,0.,0.
1,9,.01,.0,.0,0.,0.,0.
*MATERIAL,NAME=EL
*ELASTIC
210000.,.3
*PLASTIC
2100.,.01
*SOLID SECTION,ELSET=Eall,MATERIAL=EL
**
*STEP
*STATIC
1.,1.
*EL PRINT,ELSET=Eall
S
*EL FILE
U,S
*END STEP