*NODE, NSET=Nall
       0,5.000000000000e+001,5.000000000000e+001,3.000000000000e+002
       1,0.000000000000e+000,1.000000000000e+002,0.000000000000e+000
       2,0.000000000000e+000,7.500000000000e+001,0.000000000000e+000
       3,0.000000000000e+000,7.500000000000e+001,3.000000000000e+001
       4,0.000000000000e+000,1.000000000000e+002,3.000000000000e+001
       5,0.000000000000e+000,7.500000000000e+001,6.000000000000e+001
       6,0.000000000000e+000,1.000000000000e+002,6.000000000000e+001
       7,0.000000000000e+000,7.500000000000e+001,9.000000000000e+001
       8,0.000000000000e+000,1.000000000000e+002,9.000000000000e+001
       9,0.000000000000e+000,7.500000000000e+001,1.200000000000e+002
      10,0.000000000000e+000,1.000000000000e+002,1.200000000000e+002
      11,0.000000000000e+000,7.500000000000e+001,1.500000000000e+002
      12,0.000000000000e+000,1.000000000000e+002,1.500000000000e+002
      13,0.000000000000e+000,7.500000000000e+001,1.800000000000e+002
      14,0.000000000000e+000,1.000000000000e+002,1.800000000000e+002
      15,0.000000000000e+000,7.500000000000e+001,2.100000000000e+002
      16,0.000000000000e+000,1.000000000000e+002,2.100000000000e+002
      17,0.000000000000e+000,7.500000000000e+001,2.400000000000e+002
      18,0.000000000000e+000,1.000000000000e+002,2.400000000000e+002
      19,0.000000000000e+000,7.500000000000e+001,2.700000000000e+002
** ... 157 like lines cut
*ELEMENT, TYPE=S4, ELSET=Eall
     1,      1,      2,      3,      4
     2,      4,      3,      5,      6
     3,      6,      5,      7,      8
     4,      8,      7,      9,     10
     5,     10,      9,     11,     12
     6,     12,     11,     13,     14
     7,     14,     13,     15,     16
     8,     16,     15,     17,     18
     9,     18,     17,     19,     20
    10,     20,     19,     21,     22
    11,      2,     23,     24,      3
    12,      3,     24,     25,      5
    13,      5,     25,     26,      7
    14,      7,     26,     27,      9
    15,      9,     27,     28,     11
    16,     11,     28,     29,     13
    17,     13,     29,     30,     15
    18,     15,     30,     31,     17
    19,     17,     31,     32,     19
    20,     19,     32,     33,     21
** ... 140 like lines cut

*NSET,NSET=Nfix 
1, 
2, 
23, 
34, 
45, 
56, 
57, 
78, 
89, 
100, 
101, 
122, 
133, 
144, 
155, 
166, 
*NSET,NSET=Nload
21, 
22, 
33, 
44, 
55, 
76, 
77, 
88, 
99, 
120, 
121, 
132, 
143, 
154, 
165, 
176, 
*MATERIAL, Name=Mat1
*ELASTIC
 210000.,.3
*SHELL SECTION,MATERIAL=Mat1,ELSET=Eall
 5.0
*BOUNDARY
 Nfix,1,3
*STEP
*STATIC
*CLOAD
 Nload,3,100.
*NODE FILE
 U
*EL FILE
 S, E
*END STEP

