*HEADING
CALC PROBLEM=Barr Solver=Spooles
*NODE
000001,0.00000E+0,5.00000E+0,0.00000E+0,
000002,0.00000E+0,4.33013E+0,2.50000E+0,
000003,0.00000E+0,2.50000E+0,4.33013E+0,
000004,0.00000E+0,0.00000E+0,5.00000E+0,
000005,0.00000E+0,-2.5000E+0,4.33013E+0,
000006,0.00000E+0,-4.3301E+0,2.50000E+0,
000007,0.00000E+0,-5.0000E+0,0.00000E+0,
000008,0.00000E+0,2.50000E+0,0.00000E+0,
000009,0.00000E+0,2.18750E+0,1.62380E+0,
000010,0.00000E+0,1.87500E+0,3.24760E+0,
000011,0.00000E+0,0.00000E+0,3.24760E+0,
000012,0.00000E+0,-1.8750E+0,3.24760E+0,
000013,0.00000E+0,-2.1875E+0,1.62380E+0,
000014,0.00000E+0,-2.5000E+0,0.00000E+0,
000015,0.00000E+0,0.00000E+0,0.00000E+0,
000016,0.00000E+0,0.00000E+0,1.62380E+0,
000017,0.00000E+0,-4.3301E+0,-2.5000E+0,
000018,0.00000E+0,-2.5000E+0,-4.3301E+0,
000019,0.00000E+0,0.00000E+0,-5.0000E+0,
000020,0.00000E+0,2.50000E+0,-4.3301E+0,
** ... 277 like lines cut
*ELEMENT,TYPE=C3D8
000001,000015,000008,000009,000016,000042,000035,000036,000043
000002,000016,000009,000010,000011,000043,000036,000037,000038
000003,000014,000015,000016,000013,000041,000042,000043,000040
000004,000013,000016,000011,000012,000040,000043,000038,000039
000005,000009,000008,000001,000002,000036,000035,000028,000029
000006,000010,000009,000002,000003,000037,000036,000029,000030
000007,000011,000010,000003,000004,000038,000037,000030,000031
000008,000012,000011,000004,000005,000039,000038,000031,000032
000009,000013,000012,000005,000006,000040,000039,000032,000033
000010,000014,000013,000006,000007,000041,000040,000033,000034
000011,000015,000014,000022,000027,000042,000041,000049,000054
000012,000027,000022,000023,000024,000054,000049,000050,000051
000013,000008,000015,000027,000026,000035,000042,000054,000053
000014,000026,000027,000024,000025,000053,000054,000051,000052
000015,000022,000014,000007,000017,000049,000041,000034,000044
000016,000023,000022,000017,000018,000050,000049,000044,000045
000017,000024,000023,000018,000019,000051,000050,000045,000046
000018,000025,000024,000019,000020,000052,000051,000046,000047
000019,000026,000025,000020,000021,000053,000052,000047,000048
000020,000008,000026,000021,000001,000035,000053,000048,000028
** ... 180 like lines cut
*NSET,NSET=N_AL,GENERATE
000001,000297,1,
*ELSET,ELSET=E_AL,GENERATE
000001,000200,1,
*SOLIDSECTION,ELSET=E_AL, material=SS302
1.0,
**MATERILALPROPERTIESDATA**
*material, name=SS302
*elastic
2.10000E+4,3.00000E-1
*DENSITY
0.00000E+0
*BOUNDARY
000001,1,3,
000002,1,3,
000003,1,3,
000004,1,3,
000005,1,3,
000006,1,3,
000007,1,3,
000008,1,3,
000009,1,3,
000010,1,3,
000011,1,3,
000012,1,3,
000013,1,3,
000014,1,3,
000015,1,3,
000016,1,3,
000017,1,3,
000018,1,3,
000019,1,3,
000020,1,3,
** ... 7 like lines cut
*STEP
*STATIC,SOLVER=SPOOLES
*CLOAD
000285,2,-2.0000E+0
*DLOAD
E_AL,GRAV,9.80000E+3,0,-1,0
*NODE FILE
U
*EL FILE
S
*ENDSTEP
