*Heading
 C:\_testkonv\spec\msh\surt2.inp
*Node,NSET=Nall
1,0.000000000000e+000,0.000000000000e+000,0.000000000000e+000
2,1.000000000000e+001,0.000000000000e+000,0.000000000000e+000
3,1.000000000000e+001,2.000000000000e+000,0.000000000000e+000
4,0.000000000000e+000,2.000000000000e+000,0.000000000000e+000
5,5.555555820465e-001,0.000000000000e+000,0.000000000000e+000
6,1.111111164093e+000,0.000000000000e+000,0.000000000000e+000
7,1.666666626930e+000,0.000000000000e+000,0.000000000000e+000
8,2.222222328186e+000,0.000000000000e+000,0.000000000000e+000
9,2.777777671814e+000,0.000000000000e+000,0.000000000000e+000
10,3.333333253860e+000,0.000000000000e+000,0.000000000000e+000
11,3.888888835907e+000,0.000000000000e+000,0.000000000000e+000
12,4.444444656372e+000,0.000000000000e+000,0.000000000000e+000
13,5.000000000000e+000,0.000000000000e+000,0.000000000000e+000
14,5.555555343628e+000,0.000000000000e+000,0.000000000000e+000
15,6.111111164093e+000,0.000000000000e+000,0.000000000000e+000
16,6.666666507721e+000,0.000000000000e+000,0.000000000000e+000
17,7.222222328186e+000,0.000000000000e+000,0.000000000000e+000
18,7.777777671814e+000,0.000000000000e+000,0.000000000000e+000
19,8.333333015442e+000,0.000000000000e+000,0.000000000000e+000
20,8.888889312744e+000,0.000000000000e+000,0.000000000000e+000
** ... 309 like lines cut
*NSET,NSET=ln1
1
22
5
23
6
24
7
25
8
26
9
27
10
28
11
29
12
30
13
31
** ... 17 like lines cut
*NSET,NSET=ln2
2
41
40
42
3
*NSET,NSET=ln3
3
60
43
61
44
62
45
63
46
64
47
65
48
66
49
67
50
68
51
69
** ... 17 like lines cut
*NSET,NSET=ln4
4
79
78
80
1
*Element, type=S6, ELSET=sur6
41, 16, 90, 15, 134, 135, 33
42, 90, 91, 15, 136, 137, 135
43, 90, 89, 91, 138, 139, 136
44, 15, 91, 14, 137, 140, 32
45, 54, 55, 93, 72, 141, 142
46, 55, 92, 93, 143, 144, 141
47, 55, 56, 92, 73, 145, 143
48, 93, 92, 87, 144, 146, 147
49, 20, 94, 19, 148, 149, 37
50, 94, 95, 19, 150, 151, 149
51, 94, 88, 95, 152, 153, 150
52, 19, 95, 18, 151, 154, 36
53, 54, 93, 97, 142, 155, 156
54, 93, 96, 97, 157, 158, 155
55, 93, 87, 96, 147, 159, 157
56, 97, 96, 82, 158, 160, 161
57, 56, 98, 92, 162, 163, 145
58, 98, 99, 92, 164, 165, 163
59, 98, 81, 99, 166, 167, 164
60, 92, 99, 87, 165, 168, 146
** ... 124 like lines cut


*MATERIAL,NAME=Steel
*ELASTIC
2.9000E+07,0.3
*DENSITY
7.3500E-04

*SHELL SECTION,MATERIAL=Steel,ELSET=sur6
1



*BOUNDARY
ln4,1,6,0

**Here is experimental nodal group
*NSET,NSET=nodes
2,
3,
2,
2,
2,



*STEP
*STATIC
*CLOAD
nodes,3,-10000
*NODE FILE,OUTPUT=3D
U
*EL FILE
S,U
*END STEP

