CALC PROBLEM=Static Solver=Spooles
*NODE
000001,3.000000E+01,1.836970E-15,1.836970E-15,
000002,2.121320E+01,2.597868E-15,2.121320E+01,
000003,0.000000E+00,3.673940E-15,3.000000E+01,
000004,-2.12132E+01,2.597868E-15,2.121320E+01,
000005,-3.00000E+01,-1.83697E-15,1.836970E-15,
000006,-2.12132E+01,0.000000E+00,-2.12132E+01,
000007,-3.67394E-15,0.000000E+00,-3.00000E+01,
000008,2.121320E+01,0.000000E+00,-2.12132E+01,
000009,3.000000E+01,-1.00000E+01,3.673940E-15,
000010,2.121320E+01,-1.00000E+01,2.121320E+01,
000011,6.123234E-16,-1.00000E+01,3.000000E+01,
000012,-2.12132E+01,-1.00000E+01,2.121320E+01,
000013,-3.00000E+01,-1.00000E+01,0.000000E+00,
000014,-2.12132E+01,-1.00000E+01,-2.12132E+01,
000015,-9.03641E-15,-1.00000E+01,-3.00000E+01,
000016,2.121320E+01,-1.00000E+01,-2.12132E+01,
000017,2.839230E+01,-1.60000E+01,4.677680E-15,
000018,2.007639E+01,-1.60000E+01,2.007639E+01,
000019,9.797174E-16,-1.60000E+01,2.839230E+01,
000020,-2.00764E+01,-1.60000E+01,2.007639E+01,
** ... 270 like lines cut
*ELEMENT,TYPE=S8
000001,000009,000001,000002,000010,000099,000199,000100,000191
000002,000010,000002,000003,000011,000100,000200,000101,000192
000003,000011,000003,000004,000012,000101,000201,000102,000193
000004,000012,000004,000005,000013,000102,000202,000103,000194
000005,000013,000005,000006,000014,000103,000206,000104,000198
000006,000014,000006,000007,000015,000104,000205,000105,000197
000007,000015,000007,000008,000016,000105,000204,000106,000196
000008,000016,000008,000001,000009,000106,000203,000099,000195
000009,000042,000037,000038,000039,000107,000125,000126,000207
000010,000041,000042,000039,000040,000108,000207,000127,000128
000011,000018,000017,000009,000010,000109,000208,000191,000209
000012,000019,000018,000010,000011,000110,000209,000192,000210
000013,000020,000019,000011,000012,000111,000210,000193,000211
000014,000021,000020,000012,000013,000112,000211,000194,000232
000015,000023,000022,000017,000018,000113,000212,000109,000213
000016,000024,000023,000018,000019,000114,000213,000110,000214
000017,000025,000024,000019,000020,000115,000214,000111,000215
000018,000026,000025,000020,000021,000116,000215,000112,000236
000019,000028,000027,000022,000023,000117,000216,000113,000217
000020,000029,000028,000023,000024,000118,000217,000114,000218
** ... 76 like lines cut
*NSET,NSET=ALLN,GENERATE
000001,000290,1,
*ELSET,ELSET=E1,GENERATE
000001,000096,1,
*SHELLSECTION,ELSET=E1, material=SS302
1.000000E+00,1
**MATERILALPROPERTIESDATA**
*material, name=SS302
*elastic
2.000000E+04,3.100000E-01
*DENSITY
7.390000E-10
*BOUNDARY
000042,1,3,
000083,1,1
000083,3,3
000001,3,3
*STEP
*STATIC,SOLVER=SPOOLES
0.1,0.1
*DLOAD
E1,P,1.000000E-01
*NODE FILE
U
*EL FILE
S
*ENDSTEP
