*HEADING
MODEL: WAVE PROPAGATION IN ELASTIC MEDIUM, ELEMENT TYPE C3D8R

*NODE
      1, -0.0500000007, -0.0500000007,  0.100000001
      2, -0.0500000007, -0.0399999991,  0.100000001
      3, -0.0500000007, -0.0299999993,  0.100000001
      4, -0.0500000007, -0.0199999996,  0.100000001
      5, -0.0500000007, -0.00999999978,  0.100000001
      6, -0.0500000007,           0.,  0.100000001
      7, -0.0500000007, 0.00999999978,  0.100000001
      8, -0.0500000007, 0.0199999996,  0.100000001
      9, -0.0500000007, 0.0299999993,  0.100000001
     10, -0.0500000007, 0.0399999991,  0.100000001
     11, -0.0500000007, 0.0500000007,  0.100000001
     12, -0.0500000007, -0.0500000007, 0.0900000036
     13, -0.0500000007, -0.0399999991, 0.0900000036
     14, -0.0500000007, -0.0299999993, 0.0900000036
     15, -0.0500000007, -0.0199999996, 0.0900000036
     16, -0.0500000007, -0.00999999978, 0.0900000036
     17, -0.0500000007,           0., 0.0900000036
     18, -0.0500000007, 0.00999999978, 0.0900000036
     19, -0.0500000007, 0.0199999996, 0.0900000036
     20, -0.0500000007, 0.0299999993, 0.0900000036
** ... 1311 like lines cut

*ELEMENT, TYPE=C3D8R
   1,  122,  123,  134,  133,    1,    2,   13,   12
   2,  123,  124,  135,  134,    2,    3,   14,   13
   3,  124,  125,  136,  135,    3,    4,   15,   14
   4,  125,  126,  137,  136,    4,    5,   16,   15
   5,  126,  127,  138,  137,    5,    6,   17,   16
   6,  127,  128,  139,  138,    6,    7,   18,   17
   7,  128,  129,  140,  139,    7,    8,   19,   18
   8,  129,  130,  141,  140,    8,    9,   20,   19
   9,  130,  131,  142,  141,    9,   10,   21,   20
  10,  131,  132,  143,  142,   10,   11,   22,   21
  11,  133,  134,  145,  144,   12,   13,   24,   23
  12,  134,  135,  146,  145,   13,   14,   25,   24
  13,  135,  136,  147,  146,   14,   15,   26,   25
  14,  136,  137,  148,  147,   15,   16,   27,   26
  15,  137,  138,  149,  148,   16,   17,   28,   27
  16,  138,  139,  150,  149,   17,   18,   29,   28
  17,  139,  140,  151,  150,   18,   19,   30,   29
  18,  140,  141,  152,  151,   19,   20,   31,   30
  19,  141,  142,  153,  152,   20,   21,   32,   31
  20,  142,  143,  154,  153,   21,   22,   33,   32
** ... 980 like lines cut

*NSET, NSET=SOURCE
 1331,

*NSET, NSET=BOTTOM
    1,    2,    3,    4,    5,    6,    7,    8,    9,   10,   11,  122,  123,  124,  125,  126
  127,  128,  129,  130,  131,  132,  243,  244,  245,  246,  247,  248,  249,  250,  251,  252
  253,  364,  365,  366,  367,  368,  369,  370,  371,  372,  373,  374,  485,  486,  487,  488
  489,  490,  491,  492,  493,  494,  495,  606,  607,  608,  609,  610,  611,  612,  613,  614
  615,  616,  727,  728,  729,  730,  731,  732,  733,  734,  735,  736,  737,  848,  849,  850
  851,  852,  853,  854,  855,  856,  857,  858,  969,  970,  971,  972,  973,  974,  975,  976
  977,  978,  979, 1090, 1091, 1092, 1093, 1094, 1095, 1096, 1097, 1098, 1099, 1100, 1211, 1212
 1213, 1214, 1215, 1216, 1217, 1218, 1219, 1220, 1221

*NSET, NSET=NALL, GENERATE
 1,  1331,      1

*ELSET, ELSET=EALL, GENERATE
 1,  1000,      1

*MATERIAL,NAME=EL

*DENSITY
1000.,
*ELASTIC
27000., 0.3

*SOLID SECTION, MATERIAL=EL, ELSET=EALL

*AMPLITUDE, NAME=AMPSINEPULSE
 0.0,	0.0
 1E-5,	1.0
 2E-5,	0.0
 
*BOUNDARY
BOTTOM, 1
*BOUNDARY
BOTTOM, 2
*BOUNDARY
BOTTOM, 3

*STEP

*DYNAMIC, EXPLICIT
1E-6, 0.005

*CLOAD, AMPLITUDE=AMPSINEPULSE
SOURCE, 3, 1E-5

*NODE PRINT,NSET=NALL
U

*END STEP
