*HEADING
multi-axial fatigue theory dissipation rate
*PREPRINT,ECHO=NO,MODEL=NO,HISTORY=NO
*PHYSICAL CONSTANTS,STEFANB=5.6697E-8,ABSOLUTE ZERO = -273.15
*NODE,SYSTEM=R,NSET=NALL
      1,           0., -0.0763406008,  0.186220005
      2,           0., -0.0820232034,   0.19625999
      3,           0., -0.0878095031,  0.209377006
      4,           0., -0.0915332064,  0.224270999
      5,           0., -0.0928172022,  0.240042999
      6,           0., -0.090911597,  0.254380018
      7,           0., -0.0864524022,  0.267800987
      8,           0., -0.0787883997,  0.281708002
      9,           0., -0.0717917979,  0.292161018
     10,           0., -0.0646722987,  0.301971972
     11,           0., -0.0606708974,  0.306040972
     12,           0., -0.0534688979,  0.310084999
     13,           0., -0.0380778015,  0.313424021
     14,           0., -0.0207773987,  0.315337002
     15,           0.,           0.,  0.316200018
     16,           0., -0.0737035498,  0.186256483
     17,           0., -0.0793862045,   0.19756946
     18,           0., -0.085835591,  0.210292384
     19,           0., -0.0900175944,   0.22472474
     20,           0., -0.0918011963,   0.24006252
** ... 2070 like lines cut
**  ----------------------------------------------
*Element, type=DC3D8, elset=ETIRE
    1,   501,   502,   517,   516,     1,     2,    17,    16
    2,   502,   503,   518,   517,     2,     3,    18,    17
    3,   503,   504,   519,   518,     3,     4,    19,    18
    4,   504,   505,   520,   519,     4,     5,    20,    19
    5,   505,   506,   521,   520,     5,     6,    21,    20
    6,   506,   507,   522,   521,     6,     7,    22,    21
    7,   507,   508,   523,   522,     7,     8,    23,    22
    8,   508,   509,   524,   523,     8,     9,    24,    23
    9,   509,   510,   525,   524,     9,    10,    25,    24
   10,   510,   511,   526,   525,    10,    11,    26,    25
   11,   511,   512,   527,   526,    11,    12,    27,    26
   12,   512,   513,   528,   527,    12,    13,    28,    27
   13,   513,   514,   529,   528,    13,    14,    29,    28
   14,   514,   515,   530,   529,    14,    15,    30,    29
   15,   516,   517,   532,   531,    16,    17,    32,    31
   16,   517,   518,   533,   532,    17,    18,    33,    32
   17,   518,   519,   534,   533,    18,    19,    34,    33
   18,   519,   520,   535,   534,    19,    20,    35,    34
   19,   520,   521,   536,   535,    20,    21,    36,    35
   20,   521,   522,   537,   536,    21,    22,    37,    36
** ... 1324 like lines cut
**  --------------------------------------------------
*ELSET,ELSET=TREAD   
    10,    11,    12,    13,    14,    24,    25,    26,    27,    28,   510,   511,   512,   513,   514,   524
   525,   526,   527,   528,  1010,  1011,  1012,  1013,  1014,  1024,  1025,  1026,  1027,  1028,  1510,  1511
  1512,  1513,  1514,  1524,  1525,  1526,  1527,  1528,  2010,  2011,  2012,  2013,  2014,  2024,  2025,  2026
  2027,  2028,  2510,  2511,  2512,  2513,  2514,  2524,  2525,  2526,  2527,  2528,  3010,  3011,  3012,  3013
  3014,  3024,  3025,  3026,  3027,  3028,  3510,  3511,  3512,  3513,  3514,  3524,  3525,  3526,  3527,  3528
  4010,  4011,  4012,  4013,  4014,  4024,  4025,  4026,  4027,  4028,  4510,  4511,  4512,  4513,  4514,  4524
  4525,  4526,  4527,  4528,  5010,  5011,  5012,  5013,  5014,  5024,  5025,  5026,  5027,  5028,  5510,  5511
  5512,  5513,  5514,  5524,  5525,  5526,  5527,  5528,  6010,  6011,  6012,  6013,  6014,  6024,  6025,  6026
  6027,  6028,  6510,  6511,  6512,  6513,  6514,  6524,  6525,  6526,  6527,  6528,  7010,  7011,  7012,  7013
  7014,  7024,  7025,  7026,  7027,  7028,  7510,  7511,  7512,  7513,  7514,  7524,  7525,  7526,  7527,  7528
  8010,  8011,  8012,  8013,  8014,  8024,  8025,  8026,  8027,  8028,  8510,  8511,  8512,  8513,  8514,  8524
  8525,  8526,  8527,  8528,  9010,  9011,  9012,  9013,  9014,  9024,  9025,  9026,  9027,  9028,  9510,  9511
  9512,  9513,  9514,  9524,  9525,  9526,  9527,  9528, 10010, 10011, 10012, 10013, 10014, 10024, 10025, 10026
 10027, 10028, 10510, 10511, 10512, 10513, 10514, 10524, 10525, 10526, 10527, 10528, 11010, 11011, 11012, 11013
 11014, 11024, 11025, 11026, 11027, 11028, 11510, 11511, 11512, 11513, 11514, 11524, 11525, 11526, 11527, 11528
 15010, 15011, 15012, 15013, 15014, 15024, 15025, 15026, 15027, 15028, 15510, 15511, 15512, 15513, 15514, 15524
 15525, 15526, 15527, 15528, 16010, 16011, 16012, 16013, 16014, 16024, 16025, 16026, 16027, 16028, 16510, 16511
 16512, 16513, 16514, 16524, 16525, 16526, 16527, 16528, 17010, 17011, 17012, 17013, 17014, 17024, 17025, 17026
 17027, 17028, 17510, 17511, 17512, 17513, 17514, 17524, 17525, 17526, 17527, 17528, 18010, 18011, 18012, 18013
 18014, 18024, 18025, 18026, 18027, 18028, 18510, 18511, 18512, 18513, 18514, 18524, 18525, 18526, 18527, 18528
** ... 10 like lines cut
*ELSET,ELSET=SIDE   
     1,     2,     3,     4,     5,     6,     7,     8,     9,    15,    16,    17,    18,    19,    20,    21
    22,    23,   501,   502,   503,   504,   505,   506,   507,   508,   509,   515,   516,   517,   518,   519
   520,   521,   522,   523,  1001,  1002,  1003,  1004,  1005,  1006,  1007,  1008,  1009,  1015,  1016,  1017
  1018,  1019,  1020,  1021,  1022,  1023,  1501,  1502,  1503,  1504,  1505,  1506,  1507,  1508,  1509,  1515
  1516,  1517,  1518,  1519,  1520,  1521,  1522,  1523,  2001,  2002,  2003,  2004,  2005,  2006,  2007,  2008
  2009,  2015,  2016,  2017,  2018,  2019,  2020,  2021,  2022,  2023,  2501,  2502,  2503,  2504,  2505,  2506
  2507,  2508,  2509,  2515,  2516,  2517,  2518,  2519,  2520,  2521,  2522,  2523,  3001,  3002,  3003,  3004
  3005,  3006,  3007,  3008,  3009,  3015,  3016,  3017,  3018,  3019,  3020,  3021,  3022,  3023,  3501,  3502
  3503,  3504,  3505,  3506,  3507,  3508,  3509,  3515,  3516,  3517,  3518,  3519,  3520,  3521,  3522,  3523
  4001,  4002,  4003,  4004,  4005,  4006,  4007,  4008,  4009,  4015,  4016,  4017,  4018,  4019,  4020,  4021
  4022,  4023,  4501,  4502,  4503,  4504,  4505,  4506,  4507,  4508,  4509,  4515,  4516,  4517,  4518,  4519
  4520,  4521,  4522,  4523,  5001,  5002,  5003,  5004,  5005,  5006,  5007,  5008,  5009,  5015,  5016,  5017
  5018,  5019,  5020,  5021,  5022,  5023,  5501,  5502,  5503,  5504,  5505,  5506,  5507,  5508,  5509,  5515
  5516,  5517,  5518,  5519,  5520,  5521,  5522,  5523,  6001,  6002,  6003,  6004,  6005,  6006,  6007,  6008
  6009,  6015,  6016,  6017,  6018,  6019,  6020,  6021,  6022,  6023,  6501,  6502,  6503,  6504,  6505,  6506
  6507,  6508,  6509,  6515,  6516,  6517,  6518,  6519,  6520,  6521,  6522,  6523,  7001,  7002,  7003,  7004
  7005,  7006,  7007,  7008,  7009,  7015,  7016,  7017,  7018,  7019,  7020,  7021,  7022,  7023,  7501,  7502
  7503,  7504,  7505,  7506,  7507,  7508,  7509,  7515,  7516,  7517,  7518,  7519,  7520,  7521,  7522,  7523
  8001,  8002,  8003,  8004,  8005,  8006,  8007,  8008,  8009,  8015,  8016,  8017,  8018,  8019,  8020,  8021
  8022,  8023,  8501,  8502,  8503,  8504,  8505,  8506,  8507,  8508,  8509,  8515,  8516,  8517,  8518,  8519
** ... 34 like lines cut
*Elset, elset=_BEAD_S3
     1,   501,  1001,  1501,  2001,  2501,  3001,  3501,  4001,  4501,  5001,  5501,  6001,  6501,  7001,  7501
  8001,  8501,  9001,  9501, 10001, 10501, 11001, 11501, 15001, 15501, 16001, 16501, 17001, 17501, 18001, 18501
 19001, 19501, 20001, 20501, 21001, 21501, 22001, 22501, 23001, 23501, 24001, 24501, 25001, 25501, 26001, 26501
*Surface, type=ELEMENT, name=BEAD
_BEAD_S3, S3
*Elset, elset=_INSIDE_S5
    15,    16,    17,    18,    19,    20,    21,    22,    23,    24,    25,    26,    27,    28,   515,   516
   517,   518,   519,   520,   521,   522,   523,   524,   525,   526,   527,   528,  1015,  1016,  1017,  1018
  1019,  1020,  1021,  1022,  1023,  1024,  1025,  1026,  1027,  1028,  1515,  1516,  1517,  1518,  1519,  1520
  1521,  1522,  1523,  1524,  1525,  1526,  1527,  1528,  2015,  2016,  2017,  2018,  2019,  2020,  2021,  2022
  2023,  2024,  2025,  2026,  2027,  2028,  2515,  2516,  2517,  2518,  2519,  2520,  2521,  2522,  2523,  2524
  2525,  2526,  2527,  2528,  3015,  3016,  3017,  3018,  3019,  3020,  3021,  3022,  3023,  3024,  3025,  3026
  3027,  3028,  3515,  3516,  3517,  3518,  3519,  3520,  3521,  3522,  3523,  3524,  3525,  3526,  3527,  3528
  4015,  4016,  4017,  4018,  4019,  4020,  4021,  4022,  4023,  4024,  4025,  4026,  4027,  4028,  4515,  4516
  4517,  4518,  4519,  4520,  4521,  4522,  4523,  4524,  4525,  4526,  4527,  4528,  5015,  5016,  5017,  5018
  5019,  5020,  5021,  5022,  5023,  5024,  5025,  5026,  5027,  5028,  5515,  5516,  5517,  5518,  5519,  5520
  5521,  5522,  5523,  5524,  5525,  5526,  5527,  5528,  6015,  6016,  6017,  6018,  6019,  6020,  6021,  6022
  6023,  6024,  6025,  6026,  6027,  6028,  6515,  6516,  6517,  6518,  6519,  6520,  6521,  6522,  6523,  6524
  6525,  6526,  6527,  6528,  7015,  7016,  7017,  7018,  7019,  7020,  7021,  7022,  7023,  7024,  7025,  7026
  7027,  7028,  7515,  7516,  7517,  7518,  7519,  7520,  7521,  7522,  7523,  7524,  7525,  7526,  7527,  7528
  8015,  8016,  8017,  8018,  8019,  8020,  8021,  8022,  8023,  8024,  8025,  8026,  8027,  8028,  8515,  8516
  8517,  8518,  8519,  8520,  8521,  8522,  8523,  8524,  8525,  8526,  8527,  8528,  9015,  9016,  9017,  9018
  9019,  9020,  9021,  9022,  9023,  9024,  9025,  9026,  9027,  9028,  9515,  9516,  9517,  9518,  9519,  9520
  9521,  9522,  9523,  9524,  9525,  9526,  9527,  9528, 10015, 10016, 10017, 10018, 10019, 10020, 10021, 10022
 10023, 10024, 10025, 10026, 10027, 10028, 10515, 10516, 10517, 10518, 10519, 10520, 10521, 10522, 10523, 10524
 10525, 10526, 10527, 10528, 11015, 11016, 11017, 11018, 11019, 11020, 11021, 11022, 11023, 11024, 11025, 11026
** ... 22 like lines cut
*Surface, type=ELEMENT, name=INSIDE
_INSIDE_S5, S5
*Elset, elset=_SIDE_S3
     2,     3,     4,     5,     6,     7,     8,     9,   502,   503,   504,   505,   506,   507,   508,   509
  1002,  1003,  1004,  1005,  1006,  1007,  1008,  1009,  1502,  1503,  1504,  1505,  1506,  1507,  1508,  1509
  2002,  2003,  2004,  2005,  2006,  2007,  2008,  2009,  2502,  2503,  2504,  2505,  2506,  2507,  2508,  2509
  3002,  3003,  3004,  3005,  3006,  3007,  3008,  3009,  3502,  3503,  3504,  3505,  3506,  3507,  3508,  3509
  4002,  4003,  4004,  4005,  4006,  4007,  4008,  4009,  4502,  4503,  4504,  4505,  4506,  4507,  4508,  4509
  5002,  5003,  5004,  5005,  5006,  5007,  5008,  5009,  5502,  5503,  5504,  5505,  5506,  5507,  5508,  5509
  6002,  6003,  6004,  6005,  6006,  6007,  6008,  6009,  6502,  6503,  6504,  6505,  6506,  6507,  6508,  6509
  7002,  7003,  7004,  7005,  7006,  7007,  7008,  7009,  7502,  7503,  7504,  7505,  7506,  7507,  7508,  7509
  8002,  8003,  8004,  8005,  8006,  8007,  8008,  8009,  8502,  8503,  8504,  8505,  8506,  8507,  8508,  8509
  9002,  9003,  9004,  9005,  9006,  9007,  9008,  9009,  9502,  9503,  9504,  9505,  9506,  9507,  9508,  9509
 10002, 10003, 10004, 10005, 10006, 10007, 10008, 10009, 10502, 10503, 10504, 10505, 10506, 10507, 10508, 10509
 11002, 11003, 11004, 11005, 11006, 11007, 11008, 11009, 11502, 11503, 11504, 11505, 11506, 11507, 11508, 11509
 15002, 15003, 15004, 15005, 15006, 15007, 15008, 15009, 15502, 15503, 15504, 15505, 15506, 15507, 15508, 15509
 16002, 16003, 16004, 16005, 16006, 16007, 16008, 16009, 16502, 16503, 16504, 16505, 16506, 16507, 16508, 16509
 17002, 17003, 17004, 17005, 17006, 17007, 17008, 17009, 17502, 17503, 17504, 17505, 17506, 17507, 17508, 17509
 18002, 18003, 18004, 18005, 18006, 18007, 18008, 18009, 18502, 18503, 18504, 18505, 18506, 18507, 18508, 18509
 19002, 19003, 19004, 19005, 19006, 19007, 19008, 19009, 19502, 19503, 19504, 19505, 19506, 19507, 19508, 19509
 20002, 20003, 20004, 20005, 20006, 20007, 20008, 20009, 20502, 20503, 20504, 20505, 20506, 20507, 20508, 20509
 21002, 21003, 21004, 21005, 21006, 21007, 21008, 21009, 21502, 21503, 21504, 21505, 21506, 21507, 21508, 21509
 22002, 22003, 22004, 22005, 22006, 22007, 22008, 22009, 22502, 22503, 22504, 22505, 22506, 22507, 22508, 22509
** ... 4 like lines cut
*Surface, type=ELEMENT, name=SIDE
_SIDE_S3, S3
*Elset, elset=_TREAD_S3
    10,    11,    12,    13,    14,   510,   511,   512,   513,   514,  1010,  1011,  1012,  1013,  1014,  1510
  1511,  1512,  1513,  1514,  2010,  2011,  2012,  2013,  2014,  2510,  2511,  2512,  2513,  2514,  3010,  3011
  3012,  3013,  3014,  3510,  3511,  3512,  3513,  3514,  4010,  4011,  4012,  4013,  4014,  4510,  4511,  4512
  4513,  4514,  5010,  5011,  5012,  5013,  5014,  5510,  5511,  5512,  5513,  5514,  6010,  6011,  6012,  6013
  6014,  6510,  6511,  6512,  6513,  6514,  7010,  7011,  7012,  7013,  7014,  7510,  7511,  7512,  7513,  7514
  8010,  8011,  8012,  8013,  8014,  8510,  8511,  8512,  8513,  8514,  9010,  9011,  9012,  9013,  9014,  9510
  9511,  9512,  9513,  9514, 10010, 10011, 10012, 10013, 10014, 10510, 10511, 10512, 10513, 10514, 11010, 11011
 11012, 11013, 11014, 11510, 11511, 11512, 11513, 11514, 15010, 15011, 15012, 15013, 15014, 15510, 15511, 15512
 15513, 15514, 16010, 16011, 16012, 16013, 16014, 16510, 16511, 16512, 16513, 16514, 17010, 17011, 17012, 17013
 17014, 17510, 17511, 17512, 17513, 17514, 18010, 18011, 18012, 18013, 18014, 18510, 18511, 18512, 18513, 18514
 19010, 19011, 19012, 19013, 19014, 19510, 19511, 19512, 19513, 19514, 20010, 20011, 20012, 20013, 20014, 20510
 20511, 20512, 20513, 20514, 21010, 21011, 21012, 21013, 21014, 21510, 21511, 21512, 21513, 21514, 22010, 22011
 22012, 22013, 22014, 22510, 22511, 22512, 22513, 22514, 23010, 23011, 23012, 23013, 23014, 23510, 23511, 23512
 23513, 23514, 24010, 24011, 24012, 24013, 24014, 24510, 24511, 24512, 24513, 24514, 25010, 25011, 25012, 25013
 25014, 25510, 25511, 25512, 25513, 25514, 26010, 26011, 26012, 26013, 26014, 26510, 26511, 26512, 26513, 26514
*Surface, type=ELEMENT, name=TREAD
_TREAD_S3, S3
**   ELSET
*ELSET,ELSET=EL_1
1, 501, 1001, 1501, 2001, 2501, 3001, 3501, 4001, 4501, 5001, 5501, 6001, 6501, 7001, 7501
8001, 8501, 9001, 9501, 10001, 10501, 11001, 11501
*ELSET,ELSET=EL_2
2, 502, 1002, 1502, 2002, 2502, 3002, 3502, 4002, 4502, 5002, 5502, 6002, 6502, 7002, 7502
8002, 8502, 9002, 9502, 10002, 10502, 11002, 11502
*ELSET,ELSET=EL_3
3, 503, 1003, 1503, 2003, 2503, 3003, 3503, 4003, 4503, 5003, 5503, 6003, 6503, 7003, 7503
8003, 8503, 9003, 9503, 10003, 10503, 11003, 11503
*ELSET,ELSET=EL_4
4, 504, 1004, 1504, 2004, 2504, 3004, 3504, 4004, 4504, 5004, 5504, 6004, 6504, 7004, 7504
8004, 8504, 9004, 9504, 10004, 10504, 11004, 11504
*ELSET,ELSET=EL_5
5, 505, 1005, 1505, 2005, 2505, 3005, 3505, 4005, 4505, 5005, 5505, 6005, 6505, 7005, 7505
8005, 8505, 9005, 9505, 10005, 10505, 11005, 11505
*ELSET,ELSET=EL_6
6, 506, 1006, 1506, 2006, 2506, 3006, 3506, 4006, 4506, 5006, 5506, 6006, 6506, 7006, 7506
8006, 8506, 9006, 9506, 10006, 10506, 11006, 11506
*ELSET,ELSET=EL_7
7, 507, 1007, 1507, 2007, 2507, 3007, 3507, 4007, 4507, 5007, 5507, 6007, 6507, 7007, 7507
8007, 8507, 9007, 9507, 10007, 10507, 11007, 11507
*ELSET,ELSET=EL_8
8, 508, 1008, 1508, 2008, 2508, 3008, 3508, 4008, 4508, 5008, 5508, 6008, 6508, 7008, 7508
8008, 8508, 9008, 9508, 10008, 10508, 11008, 11508
*ELSET,ELSET=EL_9
9, 509, 1009, 1509, 2009, 2509, 3009, 3509, 4009, 4509, 5009, 5509, 6009, 6509, 7009, 7509
8009, 8509, 9009, 9509, 10009, 10509, 11009, 11509
*ELSET,ELSET=EL_10
10, 510, 1010, 1510, 2010, 2510, 3010, 3510, 4010, 4510, 5010, 5510, 6010, 6510, 7010, 7510
8010, 8510, 9010, 9510, 10010, 10510, 11010, 11510
*ELSET,ELSET=EL_11
11, 511, 1011, 1511, 2011, 2511, 3011, 3511, 4011, 4511, 5011, 5511, 6011, 6511, 7011, 7511
8011, 8511, 9011, 9511, 10011, 10511, 11011, 11511
*ELSET,ELSET=EL_12
12, 512, 1012, 1512, 2012, 2512, 3012, 3512, 4012, 4512, 5012, 5512, 6012, 6512, 7012, 7512
8012, 8512, 9012, 9512, 10012, 10512, 11012, 11512
*ELSET,ELSET=EL_13
13, 513, 1013, 1513, 2013, 2513, 3013, 3513, 4013, 4513, 5013, 5513, 6013, 6513, 7013, 7513
8013, 8513, 9013, 9513, 10013, 10513, 11013, 11513
*ELSET,ELSET=EL_14
14, 514, 1014, 1514, 2014, 2514, 3014, 3514, 4014, 4514, 5014, 5514, 6014, 6514, 7014, 7514
8014, 8514, 9014, 9514, 10014, 10514, 11014, 11514
*ELSET,ELSET=EL_15
15, 515, 1015, 1515, 2015, 2515, 3015, 3515, 4015, 4515, 5015, 5515, 6015, 6515, 7015, 7515
8015, 8515, 9015, 9515, 10015, 10515, 11015, 11515
*ELSET,ELSET=EL_15014
15014, 15514, 16014, 16514, 17014, 17514, 18014, 18514, 19014, 19514, 20014, 20514, 21014, 21514, 22014, 22514
23014, 23514, 24014, 24514, 25014, 25514, 26014, 26514
*ELSET,ELSET=EL_15013
15013, 15513, 16013, 16513, 17013, 17513, 18013, 18513, 19013, 19513, 20013, 20513, 21013, 21513, 22013, 22513
23013, 23513, 24013, 24513, 25013, 25513, 26013, 26513
*ELSET,ELSET=EL_15012
15012, 15512, 16012, 16512, 17012, 17512, 18012, 18512, 19012, 19512, 20012, 20512, 21012, 21512, 22012, 22512
23012, 23512, 24012, 24512, 25012, 25512, 26012, 26512
*ELSET,ELSET=EL_15011
15011, 15511, 16011, 16511, 17011, 17511, 18011, 18511, 19011, 19511, 20011, 20511, 21011, 21511, 22011, 22511
23011, 23511, 24011, 24511, 25011, 25511, 26011, 26511
*ELSET,ELSET=EL_15010
15010, 15510, 16010, 16510, 17010, 17510, 18010, 18510, 19010, 19510, 20010, 20510, 21010, 21510, 22010, 22510
23010, 23510, 24010, 24510, 25010, 25510, 26010, 26510
** ... 108 like lines cut
**  -----------------------------------------
*SOLID SECTION,ELSET=TREAD   ,MATERIAL=RUBBER
*SOLID SECTION,ELSET=SIDE   ,MATERIAL=RUBBER
*MATERIAL,NAME=RUBBER
*Conductivity
 0.245854,
*Density
1100.,
*Hyperelastic, moduli=LONG TERM
 1e+06,0.,0.
*Viscoelastic, time=PRONY
 0.3,  0., 0.1
*** rolling speed for qdot :  80.0 km/hr
*** rolling freq  for qdot : 12.10 hz   
** ==================================================
*INITIAL CONDITION,  TYPE=TEMPERATURE
NALL, 25.0
**
*STEP, AMP=RAMP
*HEAT TRANSFER, STEADY STATE
**
*SFILM, OP=NEW
TREAD, F, 25., 12000.
*SFILM, OP=NEW
SIDE, F, 25., 131.111
*SFILM, OP=NEW
BEAD, F, 25., 88000.
**RADIATE, OP=NEW
*DFLUX, OP=NEW
EL_1, BF, 187.69583416387
EL_2, BF, 32289.0296306201
EL_3, BF, 28858.2362992888
EL_4, BF, 17953.1761518304
EL_5, BF, 22892.9215197
EL_6, BF, 38278.1693284106
EL_7, BF, 45248.8116162441
EL_8, BF, 43944.3496800515
EL_9, BF, 21354.7710983239
EL_10, BF, 9681.93554890114
EL_11, BF, 21120.233177335
EL_12, BF, 87024.7614990697
EL_13, BF, 196026.22616169
EL_14, BF, 196341.459704899
EL_15013, BF, 196026.22616169
EL_15012, BF, 87024.7614990697
EL_15011, BF, 21120.233177335
EL_15010, BF, 9681.93554890114
EL_15009, BF, 21354.7710983239
EL_15008, BF, 43944.3496800515
** ... 34 like lines cut
*OUTPUT, FIELD, FREQUENCY=99
*Element Output,ELSET=ETIRE, POSITION=CENTROIDAL 
TEMP
*NODE OUTPUT, NSET=NALL
NT
*OUTPUT,HISTORY,VAR=PRESELECT,FREQ=1
*EL PRINT, ELSET=ETIRE, POSITION=CENTROIDAL
TEMP
*NODE PRINT, NSET=NALL
NT
*END STEP
