** ***************************************************************************
**   Written by : STARMAP
**   Version    : 4.51
**   From Model : F:\WORK\SEIG\EIG1.MOD
**   Date       : Thu May 01 13:24:59 2014
** ***************************************************************************
** 
*NODE, NSET=GLOBAL
       1,          0.,          0.,          0.
       2,          0.,          0.,         7.2
       3,          0.,          0.,        14.4
       4,          0.,          0.,        21.6
       5,          0.,          0.,        28.8
       6,          0.,          0.,         36.
       7,          0.,          0.,        43.2
       8,          0.,          0.,        50.4
       9,          0.,          0.,        57.6
      10,          0.,          0.,        64.8
      11,          0.,          0.,         72.
      12,          0.,          0.,        79.2
      13,          0.,          0.,        86.4
      14,          0.,          0.,        93.6
      15,          0.,          0.,       100.8
      16,          0.,          0.,        108.
      17,          0.,          0.,       115.2
      18,          0.,          0.,       122.4
      19,          0.,          0.,       129.6
      20,          0.,          0.,       136.8
** ... 113 like lines cut
*ELEMENT, TYPE=B31, ELSET=P1_1
      1,      1,      2
      2,      2,      3
      3,      3,      4
      4,      4,      5
      5,      5,      6
      6,      6,      7
      7,      7,      8
      8,      8,      9
      9,      9,     10
     10,     10,     11
     11,     11,     12
     12,     12,     13
     13,     13,     14
     14,     14,     15
     15,     15,     16
     16,     16,     17
     17,     17,     18
     18,     18,     19
     19,     19,     20
     20,     20,     21
** ... 80 like lines cut
*ELEMENT, TYPE=B31, ELSET=P1_2
    101,    102,    103
    102,    103,    104
    103,    104,    105
    104,    105,    106
    105,    106,    107
    106,    107,    108
    107,    108,    109
    108,    109,    110
    109,    110,    111
    110,    111,    112
    111,    112,    113
    112,    113,    114
    113,    114,    115
    114,    115,    116
    115,    116,    117
    116,    117,    118
    117,    110,    120
    118,    120,    121
    119,    121,    122
    120,    122,    123
** ... 12 like lines cut
*ELSET, ELSET=OUT_BEAM, GENERATE
1,132,1
** STARMAP Property 1 and 2 : 8" square
*BEAM SECTION, MATERIAL=M1, ELSET=P1_2, SECTION=RECT
8.0,8.0
1.0, 1.0, 1.0
*BEAM SECTION, MATERIAL=M1, ELSET=P1_1, SECTION=RECT
8.0,8.0
1.0, 1.0, 1.0
** STARMAP Material 1 : AISI 1025 Carbon Steel
*MATERIAL, NAME=M1
*ELASTIC, TYPE=ISOTROPIC
 29000000.,      0.32,       70.
*EXPANSION, TYPE=ISO
     6.E-6,       70.
*DENSITY
0.00073574
*SPECIFIC HEAT
   44.8224,       70.
*CONDUCTIVITY, TYPE=ISO
0.00069444,       70.
** Load Step 1 -------------------------------------------------------
*STEP, INC=1000
dload
*FREQUENCY,  STORAGE=YES
   85, 0.1,    1500.,          
*NODE PRINT, NSET=GLOBAL
    U
*EL PRINT, ELSET=OUT_BEAM
    S
*NODE FILE
  U
*EL FILE
    S
*BOUNDARY, OP=NEW
    1,    1
    1,    2
    1,    3
    1,    4
    1,    5
    1,    6
*ELSET, ELSET=EAB, GENERATE
    1,  132
*AMPLITUDE, NAME=ONE
0.0,1.0,  2000.0,1.0
*DLOAD, AMPLITUDE=ONE
EAB, GRAV,     386.4,        0.,        0.,        1.
*CLOAD, OP=NEW
110, 1,0.0
*END STEP
** Load Step 2 -------------------------------------------------------
*STEP
dload
*STEADY STATE DYNAMICS
       0.1,     1500.,   , 3
*AMPLITUDE, NAME=90HZ
0.0,0.0,  89.9,0.0, 90.0,1.0, 91.0,1.0, 91.1,0.0
2000.0, 0.0
*NODE PRINT, NSET=GLOBAL
    U
*EL PRINT, ELSET=OUT_BEAM
    S
*NODE FILE
    U
*EL FILE
    S
*ELSET, GENERATE, ELSET=E_ALL
    1,  132
*CLOAD, OP=NEW, AMPLITUDE=90HZ
110, 1,1000.0
*END STEP