*HEADING
Model: TransformHinge
**
** COORDINATES
**
*NODE, NSET=NALL
       1,   10.000000    ,   0.0000000    ,   0.0000000
       2,  0.61230318E-15,   10.000000    ,   0.0000000
       3,  -10.000000    ,   0.0000000    ,   0.0000000
       4,  -15.000000    ,   0.0000000    ,   0.0000000
       5,  -15.000000    ,   10.000000    ,   0.0000000
       6,   40.000000    ,   20.000000    ,   0.0000000
       7,  -5.0000000    ,   20.000000    ,   0.0000000
       8,   40.000000    ,   0.0000000    ,   0.0000000
       9,   9.9144486    ,   1.3052619    ,   0.0000000
      10,   9.6592583    ,   2.5881905    ,   0.0000000
      11,   9.2387953    ,   3.8268343    ,   0.0000000
      12,   8.6602540    ,   5.0000000    ,   0.0000000
      13,   7.9335334    ,   6.0876143    ,   0.0000000
      14,   7.0710678    ,   7.0710678    ,   0.0000000
      15,   6.0876143    ,   7.9335334    ,   0.0000000
      16,   5.0000000    ,   8.6602540    ,   0.0000000
      17,   3.8268343    ,   9.2387953    ,   0.0000000
      18,   2.5881905    ,   9.6592583    ,   0.0000000
      19,   1.3052619    ,   9.9144486    ,   0.0000000
      20,  -1.3052619    ,   9.9144486    ,   0.0000000
** ... 547 like lines cut
**
** TRANSFORMATIONS
**
*NSET, NSET=T1
       1,       2,       3,       9,      10,      11,      12,      13,
      14,      15,      16,      17,      18,      19,      20,      21,
      22,      23,      24,      25,      26,      27,      28,      29,
      30
*TRANSFORM, NSET=T1    , TYPE=C
  0.0000    ,  0.0000    ,  0.0000    ,  0.0000    ,  0.0000    ,  100.00
**
** ELEMENT TOPOLOGY
**
*Solid Section, elset=E1   , material=M1
   5.000
*ELEMENT, TYPE=CPS8  ,ELSET=E1
       1,       4,      32,     125,      35,      33,     262,     263,      34
       2,     125,      32,       3,      29,     262,      31,      30,     264
       3,       8,      89,     126,      92,      90,     265,     266,      91
       4,       6,      42,     127,      77,      41,     267,     268,      76
       5,       1,     112,     128,      10,     113,     269,     270,       9
       6,     112,     110,     129,     128,     111,     271,     272,     269
       7,     110,     108,     130,     129,     109,     273,     274,     271
       8,     108,     106,     131,     130,     107,     275,     276,     273
       9,     106,     104,     132,     131,     105,     277,     278,     275
      10,     104,     102,     133,     132,     103,     279,     280,     277
      11,     102,     100,     134,     133,     101,     281,     282,     279
      12,     100,      98,     135,     134,      99,     283,     284,     281
      13,      98,      96,     136,     135,      97,     285,     286,     283
      14,      96,      94,     137,     136,      95,     287,     288,     285
      15,     137,      94,      92,     126,     287,      93,     266,     289
      16,      89,      87,     138,     126,      88,     290,     291,     265
      17,      87,      85,     139,     138,      86,     292,     293,     290
      18,      85,      83,     140,     139,      84,     294,     295,     292
      19,      83,      81,     141,     140,      82,     296,     297,     294
      20,      81,      79,     142,     141,      80,     298,     299,     296
** ... 147 like lines cut
**
** MATERIAL PROPERTIES
**
**
** M1
*MATERIAL, NAME=M1
*ELASTIC, TYPE=ISOTROPIC
    200000.    ,  0.30000
** FIXED FREEDOMS
**
*BOUNDARY
       1, 1
       2, 1
       3, 1
       6, 1
       8, 1
       9, 1
      10, 1
      11, 1
      12, 1
      13, 1
      14, 1
      15, 1
      16, 1
      17, 1
      18, 1
      19, 1
      20, 1
      21, 1
      22, 1
      23, 1
** ... 22 like lines cut

** LOADING
**
*Step
**Case    1  Load
*Static, SOLVER=SPOOLES
1.0, 1.0, 1e-05, 1.0
**
** LOADS
**
**
**
**  Load  Case
**     1   1 Line  L5   , traction      0.0 , Pressure  2.
**
*Cload,OP=NEW
      6,2,  -4.1666669
      7,2,  -4.1666669
     41,2,  -16.666666
     42,2,  -8.3333338
     43,2,  -16.666666
     44,2,  -8.3333338
     45,2,  -16.666666
     46,2,  -8.3333338
     47,2,  -16.666666
     48,2,  -8.3333338
     49,2,  -16.666666
     50,2,  -8.3333338
     51,2,  -16.666666
     52,2,  -8.3333338
     53,2,  -16.666666
     54,2,  -8.3333338
     55,2,  -16.666666
     56,2,  -8.3333338
     57,2,  -16.666666
     58,2,  -8.3333338
** ... 17 like lines cut
** OUTPUT REQUESTS
**
*EL FILE
S, U, E
*End Step
