
*NODE
      6216,  0.0            ,  0.0            ,  0.0            
      6217,  25.0           ,  43.333333333333,  0.0            
      6218,  50.0           ,  86.666666666667,  0.0            
      6219,  75.0           ,  130.0          ,  0.0            
      6220,  100.0          ,  173.33333333333,  0.0            
      6221,  125.0          ,  216.66666666667,  0.0            
      6222,  150.0          ,  260.0          ,  0.0            
      6223,  175.0          ,  303.33333333333,  0.0            
      6224,  200.0          ,  346.66666666667,  0.0            
      6225,  225.0          ,  390.0          ,  0.0            
      6226,  250.0          ,  433.33333333333,  0.0            
      6227,  275.0          ,  476.66666666667,  0.0            
      6228,  300.0          ,  520.0          ,  0.0            
      6229,  325.0          ,  563.33333333333,  0.0            
      6230,  350.0          ,  606.66666666667,  0.0            
      6231,  375.0          ,  650.0          ,  0.0            
      6232,  400.0          ,  693.33333333333,  0.0            
      6233,  425.0          ,  736.66666666667,  0.0            
      6234,  450.0          ,  780.0          ,  0.0            
      6235,  475.0          ,  736.66666666667,  0.0            
** ... 251 like lines cut
*ELEMENT,TYPE=S4,ELSET=shell-elem
      6318,      6486,      6269,      6216,      6217
      6317,      6485,      6268,      6269,      6486
      6316,      6484,      6267,      6268,      6485
      6315,      6483,      6266,      6267,      6484
      6314,      6482,      6265,      6266,      6483
      6313,      6481,      6264,      6265,      6482
      6312,      6480,      6263,      6264,      6481
      6311,      6479,      6262,      6263,      6480
      6310,      6358,      6261,      6262,      6479
      6309,      6478,      6486,      6217,      6218
      6308,      6477,      6485,      6486,      6478
      6307,      6476,      6484,      6485,      6477
      6306,      6475,      6483,      6484,      6476
      6305,      6474,      6482,      6483,      6475
      6304,      6473,      6481,      6482,      6474
      6303,      6472,      6480,      6481,      6473
      6302,      6471,      6479,      6480,      6472
      6301,      6357,      6358,      6479,      6471
      6300,      6470,      6478,      6218,      6219
      6299,      6469,      6477,      6478,      6470
** ... 223 like lines cut
*ELSET, ELSET=tri-prop
      6318,      6317,      6316,      6315,      6314,      6313,      6312,      6311,
      6310,      6309,      6308,      6307,      6306,      6305,      6304,      6303,
      6302,      6301,      6300,      6299,      6298,      6297,      6296,      6295,
      6294,      6293,      6292,      6291,      6290,      6289,      6288,      6287,
      6286,      6285,      6284,      6283,      6282,      6281,      6280,      6279,
      6278,      6277,      6276,      6275,      6274,      6273,      6272,      6271,
      6270,      6269,      6268,      6267,      6266,      6265,      6264,      6263,
      6262,      6261,      6260,      6259,      6258,      6257,      6256,      6255,
      6254,      6253,      6252,      6251,      6250,      6249,      6248,      6247,
      6246,      6245,      6244,      6243,      6242,      6241,      6240,      6239,
      6238,      6237,      6236,      6235,      6234,      6233,      6232,      6231,
      6230,      6229,      6228,      6227,      6226,      6225,      6224,      6223,
      6222,      6221,      6220,      6219,      6218,      6217,      6216,      6215,
      6214,      6213,      6212,      6211,      6210,      6209,      6208,      6207,
      6206,      6205,      6204,      6203,      6202,      6201,      6200,      6199,
      6198,      6197,      6196,      6195,      6194,      6193,      6192,      6191,
      6190,      6189,      6188,      6187,      6186,      6185,      6184,      6183,
      6182,      6181,      6180,      6179,      6178,      6177,      6176,      6175,
      6174,      6173,      6172,      6171,      6170,      6169,      6168,      6167,
      6166,      6165,      6164,      6163,      6162,      6161,      6160,      6159,
** ... 11 like lines cut
*SHELL SECTION, ELSET=tri-prop, MATERIAL=tri-mat
3.0       ,
*MATERIAL, NAME=tri-mat
*ELASTIC, TYPE = ISOTROPIC
193000.0  ,0.27      ,0.0       
*STEP
*STATIC
*BOUNDARY
      6216,1,6,0.0
      6261,1,6,0.0
      6269,1,6,0.0
      6268,1,6,0.0
      6267,1,6,0.0
      6266,1,6,0.0
      6265,1,6,0.0
      6264,1,6,0.0
      6263,1,6,0.0
      6262,1,6,0.0
      6260,1,6,0.0
      6259,1,6,0.0
      6258,1,6,0.0
      6257,1,6,0.0
      6256,1,6,0.0
      6255,1,6,0.0
      6254,1,6,0.0
      6253,1,6,0.0
      6252,1,6,0.0
*CLOAD
      6234,3,-100.0         
*NODE FILE
U, 
RF, 
*EL FILE
S, 
*END STEP
*****
