
*NODE
      6216,  0.0            ,  0.0            ,  0.0            
      6217,  25.0           ,  43.333333333333,  0.0            
      6218,  50.0           ,  86.666666666667,  0.0            
      6219,  75.0           ,  130.0          ,  0.0            
      6220,  100.0          ,  173.33333333333,  0.0            
      6221,  125.0          ,  216.66666666667,  0.0            
      6222,  150.0          ,  260.0          ,  0.0            
      6223,  175.0          ,  303.33333333333,  0.0            
      6224,  200.0          ,  346.66666666667,  0.0            
      6225,  225.0          ,  390.0          ,  0.0            
      6226,  250.0          ,  433.33333333333,  0.0            
      6227,  275.0          ,  476.66666666667,  0.0            
      6228,  300.0          ,  520.0          ,  0.0            
      6229,  325.0          ,  563.33333333333,  0.0            
      6230,  350.0          ,  606.66666666667,  0.0            
      6231,  375.0          ,  650.0          ,  0.0            
      6232,  400.0          ,  693.33333333333,  0.0            
      6233,  425.0          ,  736.66666666667,  0.0            
      6234,  450.0          ,  780.0          ,  0.0            
      6235,  475.0          ,  736.66666666667,  0.0            
** ... 180 like lines cut
*ELEMENT,TYPE=S3,ELSET=shell-elems
      6419,      6274,      6298,      6415
      6418,      6296,      6415,      6298
      6417,      6291,      6290,      6414
      6416,      6289,      6414,      6290
      6415,      6387,      6383,      6413
      6414,      6392,      6413,      6383
      6413,      6330,      6317,      6412
      6412,      6352,      6412,      6317
      6411,      6285,      6280,      6411
      6410,      6289,      6411,      6280
      6409,      6284,      6233,      6235
      6408,      6282,      6284,      6236
      6407,      6283,      6231,      6232
      6406,      6286,      6230,      6231
      6405,      6286,      6285,      6411
      6404,      6230,      6286,      6281
      6403,      6282,      6287,      6285
      6402,      6287,      6279,      6280
      6401,      6288,      6282,      6237
      6400,      6278,      6288,      6238
** ... 324 like lines cut
*ELSET, ELSET=tri-prop
      6419,      6418,      6417,      6416,      6415,      6414,      6413,      6412,
      6411,      6410,      6409,      6408,      6407,      6406,      6405,      6404,
      6403,      6402,      6401,      6400,      6399,      6398,      6397,      6396,
      6395,      6394,      6393,      6392,      6391,      6390,      6389,      6388,
      6387,      6386,      6385,      6384,      6383,      6382,      6381,      6380,
      6379,      6378,      6377,      6376,      6375,      6374,      6373,      6372,
      6371,      6370,      6369,      6368,      6367,      6366,      6365,      6364,
      6363,      6362,      6361,      6360,      6359,      6358,      6357,      6356,
      6355,      6354,      6353,      6352,      6351,      6350,      6349,      6348,
      6347,      6346,      6345,      6344,      6343,      6342,      6341,      6340,
      6339,      6338,      6337,      6336,      6335,      6334,      6333,      6332,
      6331,      6330,      6329,      6328,      6327,      6326,      6325,      6324,
      6323,      6322,      6321,      6320,      6319,      6318,      6317,      6316,
      6315,      6314,      6313,      6312,      6311,      6310,      6309,      6308,
      6307,      6306,      6305,      6304,      6303,      6302,      6301,      6300,
      6299,      6298,      6297,      6296,      6295,      6294,      6293,      6292,
      6291,      6290,      6289,      6288,      6287,      6286,      6285,      6284,
      6283,      6282,      6281,      6280,      6279,      6278,      6277,      6276,
      6275,      6274,      6273,      6272,      6271,      6270,      6269,      6268,
      6267,      6266,      6265,      6264,      6263,      6262,      6261,      6260,
** ... 23 like lines cut
*SHELL SECTION, ELSET=tri-prop, MATERIAL=tri-mat
3       ,
*MATERIAL, NAME=tri-mat
*ELASTIC, TYPE = ISOTROPIC
193000.0  ,0.27      ,0.0       
*STEP
*STATIC
*BOUNDARY
      6262,1,6,0.0
      6263,1,6,0.0
      6264,1,6,0.0
      6265,1,6,0.0
      6266,1,6,0.0
      6267,1,6,0.0
      6268,1,6,0.0
      6269,1,6,0.0
      6252,1,6,0.0
      6253,1,6,0.0
      6254,1,6,0.0
      6255,1,6,0.0
      6256,1,6,0.0
      6257,1,6,0.0
      6258,1,6,0.0
      6259,1,6,0.0
      6260,1,6,0.0
      6261,1,6,0.0
      6216,1,6,0.0
*CLOAD
      6234,3,-100.0         
*NODE FILE
U, 
RF, 
*EL FILE
S, 
*END STEP
*****
