*HEADING
Just testing
** Length, m, mass, kg, time, s, temperature, K
** E, Young's Modulus, N/m^2 = kg/ms^2
** rho, Density, kg/m^3
** F, Force, N = kgm/s^2

*NODE, NSET=Nall
1, 0, 0.5, 0
2, 0.5, 0.5, 0.5
3, 0.5, 0, 0.5
4, 0, 0, 0.5
5, 0, 0, 0
6, 0.5, 0, 0
7, 0.875, 0, 0.59999999999999998
8, 0.375, 0.5, 1.1000000000000001
9, 0.5, 0.5, 0
10, 0.875, 0.5, 1.1000000000000001
11, 0.875, 0, 1.1000000000000001
12, 0.875, 0.5, 0.59999999999999998
13, 0, 0.5, 0.5
14, 0.375, 0, 0.59999999999999998
15, 0.375, 0.5, 0.59999999999999998
16, 0.375, 0, 1.1000000000000001
17, 0.625, 0, 0.59999999999999998
18, 0.625, 0.25, 0.85000000000000009
19, 0.375, 0.25, 1.1000000000000001
20, 0.375, 0, 0.85000000000000009
** ... 34 like lines cut




*ELEMENT, TYPE=C3D10, ELSET=Eall
1, 8, 16, 14, 7, 19, 20, 22, 18, 21, 17
2, 13, 2, 4, 1, 25, 26, 28, 24, 27, 23
3, 2, 6, 1, 9, 31, 32, 27, 30, 33, 29
4, 8, 11, 7, 10, 36, 37, 18, 35, 38, 34
5, 16, 8, 11, 7, 19, 36, 39, 21, 18, 37
6, 15, 8, 14, 7, 41, 22, 42, 40, 18, 17
7, 15, 8, 7, 12, 41, 18, 40, 44, 45, 43
8, 7, 8, 10, 12, 18, 35, 34, 43, 45, 46
9, 2, 4, 1, 3, 26, 23, 27, 48, 49, 47
10, 6, 2, 1, 3, 31, 27, 32, 50, 48, 47
11, 5, 6, 1, 3, 52, 32, 53, 51, 50, 47
12, 4, 5, 1, 3, 54, 53, 23, 49, 51, 47


** This is all nodes where Z=0 (i.e., sitting on the ground).
*NSET, NSET=FIX
1, 5, 6, 9, 29, 32, 33, 52, 53


*BOUNDARY
FIX, 1
FIX, 2
FIX, 3

*MATERIAL,NAME=SANDSTONE
*ELASTIC
13990000000.0, .29
*DENSITY
2397.0
*SOLID SECTION,ELSET=Eall,MATERIAL=SANDSTONE

** *ELEMENT, TYPE=GAPUNI, ELSET=G1
** 13, 48, 42
** *SOLID SECTION,ELSET=G1,MATERIAL=SANDSTONE
** *GAP,ELSET=G1
** 0.05,0.,0.,1.


** 10,S2
** *ELSET,ELSET=Emast
** *ELSET,ELSET=Eslav
*SURFACE,NAME=Sslav
6,S4
*SURFACE,NAME=Smast
9,S2
*CONTACT PAIR,INTERACTION=SI1,TYPE=SURFACE TO SURFACE
Sslav,Smast
*SURFACE INTERACTION,NAME=SI1
*SURFACE BEHAVIOR,PRESSURE-OVERCLOSURE=LINEAR
139900000000.,3
*FRICTION
0.2,5000.



** Just test under its own weight
*STEP,NLGEOM
*DYNAMIC
.001,.5
*DLOAD
Eall,GRAV,9.81,0.,0.,-1.
*NODE FILE
U
*EL FILE
S
*END STEP
