*NODE, NSET=Nall
       1,-1.387778780781e-15,-1.387778780781e-15,0.000000000000e+00
       2,-1.387778780781e-15,1.000000000000e+01,0.000000000000e+00
       3,1.000000000000e+01,1.000000000000e+01,0.000000000000e+00
       4,1.000000000000e+01,-1.387778780781e-15,0.000000000000e+00
       5,2.000000000000e+01,1.000000000000e+01,0.000000000000e+00
       6,2.000000000000e+01,-1.387778780781e-15,0.000000000000e+00
       7,3.000000000000e+01,1.000000000000e+01,0.000000000000e+00
       8,3.000000000000e+01,-1.387778780781e-15,0.000000000000e+00
       9,4.000000000000e+01,1.000000000000e+01,0.000000000000e+00
      10,4.000000000000e+01,-1.387778780781e-15,0.000000000000e+00
      11,5.000000000000e+01,1.000000000000e+01,0.000000000000e+00
      12,5.000000000000e+01,-1.387778780781e-15,0.000000000000e+00
      13,-1.387778780781e-15,2.000000000000e+01,0.000000000000e+00
      14,1.000000000000e+01,2.000000000000e+01,0.000000000000e+00
      15,2.000000000000e+01,2.000000000000e+01,0.000000000000e+00
      16,3.000000000000e+01,2.000000000000e+01,0.000000000000e+00
      17,4.000000000000e+01,2.000000000000e+01,0.000000000000e+00
      18,5.000000000000e+01,2.000000000000e+01,0.000000000000e+00
      19,-1.387778780781e-15,3.000000000000e+01,0.000000000000e+00
      20,1.000000000000e+01,3.000000000000e+01,0.000000000000e+00
** ... 16 like lines cut
*ELEMENT, TYPE=CAX4, ELSET=Eall
     1,      1,      4,      3,      2
     2,      4,      6,      5,      3
     3,      6,      8,      7,      5
     4,      8,     10,      9,      7
     5,     10,     12,     11,      9
     6,      2,      3,     14,     13
     7,      3,      5,     15,     14
     8,      5,      7,     16,     15
     9,      7,      9,     17,     16
    10,      9,     11,     18,     17
    11,     13,     14,     20,     19
    12,     14,     15,     21,     20
    13,     15,     16,     22,     21
    14,     16,     17,     23,     22
    15,     17,     18,     24,     23
    16,     19,     20,     26,     25
    17,     20,     21,     27,     26
    18,     21,     22,     28,     27
    19,     22,     23,     29,     28
    20,     23,     24,     30,     29
** ... 5 like lines cut
** 
*MATERIAL ,   NAME=WN1.8159  
*ELASTIC ,  TYPE=ISO    
207560 , 0.2406 , 20  
*DENSITY      
7.826E-09, 20
**
*SOLID SECTION,ELSET=Eall,MATERIAL=WN1.8159
**
*ELSET,ELSET=Enotch 
12, 
13, 
14, 
15, 
**
*STEP, NLGEOM, INC=999
*STATIC
0.01, 1.
**
*MODEL CHANGE, TYPE=ELEMENT, REMOVE
Enotch
**
** BOUNDARY based on fix
*BOUNDARY
1, 1, , 
4, 1, , 
6, 1, , 
8, 1, , 
10, 1, , 
12, 1, , 
1, 2, , 
4, 2, , 
6, 2, , 
8, 2, , 
10, 2, , 
12, 2, , 
**
*CLOAD
36, 2, -1000.000000
**
**
*NODE FILE, FREQUENCY=1
U
*EL FILE, FREQUENCY=1
S
**
*END STEP
**
**
*STEP, NLGEOM, INC=999
*STATIC
0.01, 1.
**
*MODEL CHANGE, TYPE=ELEMENT, ADD
Enotch
**
** BOUNDARY based on fix
**
*CLOAD
36, 2, 1000.000000
**
**
*NODE FILE, FREQUENCY=1
U
*EL FILE, FREQUENCY=1
S
**
*END STEP
