*NODE, NSET=Nall
1, -15.0, 240.0, -10.0
3, -15.0, 250.0, -10.0
5, -5.0, 240.0, -10.0
7, -5.0, 250.0, -10.0
9, 5.0, 240.0, -10.0
11, 5.0, 250.0, -10.0
10, 5.0, 240.0, 0.0
12, 5.0, 250.0, 0.0
6, -5.0, 240.0, 0.0
8, -5.0, 250.0, 0.0
2, -15.0, 240.0, 0.0
4, -15.0, 250.0, 0.0
*ELEMENT, TYPE=B31R, ELSET=BARS
1, 1,  3
2, 1,  5
3, 1,  2
4, 3,  1
5, 3,  5
6, 3,  7
7, 3,  9
8, 3,  11
9, 3,  10
10, 3,  12
11, 3,  6
12, 3,  8
13, 3,  2
14, 3,  4
15, 5,  1
16, 5,  7
17, 5,  9
18, 5,  6
19, 7,  1
20, 7,  3
** ... 66 like lines cut
*MATERIAL,NAME=Steel
*ELASTIC
4176000,.3
*BEAM SECTION,ELSET=BARS,MATERIAL=Steel,SECTION=RECT
0.5, 0.2
-0.15433221,-0.832050294337844,0.554700196225229
*BOUNDARY
3, 1, 3
7, 1, 3
11, 1, 3
12, 1, 3
8, 1, 3
4, 1, 3
*STEP
*STATIC
*CLOAD
1,2,1.0
*NODE PRINT,NSET=Nall
U
*EL PRINT,ELSET=BARS
S, E
*NODE FILE, output=3D
U, RF
*EL FILE
S, E
*END STEP