**
** ABAQUS Input Deck Generated by HyperMesh Version  : 13.0.110.31
** Generated using HyperMesh-Abaqus Template Version : 13.0.110
**
**   Template:  ABAQUS/STANDARD 3D
**
*NODE
         1,  -50.0          ,  -50.0          ,  1.0            
         2,  -45.0          ,  -50.0          ,  1.0            
         3,  -40.0          ,  -50.0          ,  1.0            
         4,  -35.0          ,  -50.0          ,  1.0            
         5,  -30.0          ,  -50.0          ,  1.0            
         6,  -25.0          ,  -50.0          ,  1.0            
         7,  -20.0          ,  -50.0          ,  1.0            
         8,  -15.0          ,  -50.0          ,  1.0            
         9,  -10.0          ,  -50.0          ,  1.0            
        10,  -5.0           ,  -50.0          ,  1.0            
        11,  -1.42108547E-14,  -50.0          ,  1.0            
        12,  5.0            ,  -50.0          ,  1.0            
        13,  10.0           ,  -50.0          ,  1.0            
        14,  15.0           ,  -50.0          ,  1.0            
        15,  20.0           ,  -50.0          ,  1.0            
        16,  25.0           ,  -50.0          ,  1.0            
        17,  30.0           ,  -50.0          ,  1.0            
        18,  35.0           ,  -50.0          ,  1.0            
        19,  40.0           ,  -50.0          ,  1.0            
        20,  45.0           ,  -50.0          ,  1.0            
** ... 546 like lines cut
**HWCOLOR COMP          3    49
*ELEMENT,TYPE=S4R,ELSET=Middle Surface
         1,       122,       127,       118,       119
         2,       127,       112,       113,       118
         3,       123,       126,       127,       122
         4,       126,       111,       112,       127
         5,       124,       128,       126,       123
         6,       128,       110,       111,       126
         7,       102,       103,       129,       125
         8,       125,       129,       128,       124
         9,       103,       104,       109,       129
        10,       129,       109,       110,       128
        11,        87,       130,       132,        86
        12,        86,       132,       121,        85
        13,       122,       133,       131,       123
        14,       133,       132,       130,       131
        15,       119,       120,       133,       122
        16,       120,       121,       132,       133
        17,        90,       100,       134,        89
        18,        89,       134,       135,        88
        19,        88,       135,       130,        87
        20,       125,       136,       101,       102
** ... 380 like lines cut
**HWCOLOR COMP          2    10
*ELEMENT,TYPE=C3D8R,ELSET=Bauteil2
       417,       455,       454,       453,       465,       467,       470,       469,
       468
       418,       467,       470,       469,       468,       471,       474,       473,
       472
       419,       471,       474,       473,       472,       475,       478,       477,
       476
       420,       475,       478,       477,       476,       479,       482,       481,
       480
       421,       444,       460,       463,       445,       483,       486,       485,
       484
       422,       483,       486,       485,       484,       487,       490,       489,
       488
       423,       487,       490,       489,       488,       491,       494,       493,
       492
       424,       491,       494,       493,       492,       495,       498,       497,
       496
       425,       456,       455,       465,       464,       499,       467,       468,
       500
       426,       499,       467,       468,       500,       501,       471,       472,
       502
** ... 108 like lines cut
**HM_PROP_ID          1
**HM_comp_by_property "property1"    11
*SOLID SECTION, ELSET=Bauteil2, MATERIAL=mat
**HM_PROP_ID          2
**HM_comp_by_property "property2"    11
*SHELL SECTION, ELSET=Middle Surface, MATERIAL=mat
2.0       ,
**HMNAME MATS          1 mat    11
*MATERIAL, NAME=mat
*DENSITY
7.8000E-09,0.0       
*ELASTIC, TYPE = ISOTROPIC
210000.0  ,0.3       ,0.0       
**HMNAME PROPERTY          3 sint
*SURFACE INTERACTION, NAME = sint
*SURFACE BEHAVIOR, PRESSURE-OVERCLOSURE = LINEAR
10000000.0,
**HMNAME GROUPS          3 cp
*CONTACT PAIR, INTERACTION=sint, TYPE=SURFACE TO SURFACE
ss, ws
*SURFACE, NAME = ss, TYPE = ELEMENT
        17, SPOS
        18, SPOS
        21, SPOS
        23, SPOS
       136, SPOS
       137, SPOS
       139, SPOS
       141, SPOS
       276, SPOS
       277, SPOS
       278, SPOS
       279, SPOS
       336, SPOS
       337, SPOS
       339, SPOS
       341, SPOS
*SURFACE, NAME = ws, TYPE = ELEMENT
       433, S6   
       421, S6   
       434, S6   
       422, S6   
       435, S6   
       423, S6   
       436, S6   
       424, S6   
       461, S6   
       449, S6   
       450, S6   
       451, S6   
       452, S6   
       462, S6   
       463, S6   
       464, S6   

*AMPLITUDE, NAME =loadamp, DEFINITION = TABULAR
0.0       ,0.0       
2.0       ,1.0       
**HMNAME CURVE          2 loadamp
**HMNAME LOADSTEP          1 step
*STEP
*DYNAMIC
0.01      ,2.0       ,          ,          
**HWNAME LOADCOL          1 sbc
**HWCOLOR LOADCOL          1    11
*BOUNDARY
         1,1,3,0.0
         2,1,3,0.0
         3,1,3,0.0
         4,1,3,0.0
         5,1,3,0.0
         6,1,3,0.0
         7,1,3,0.0
         8,1,3,0.0
         9,1,3,0.0
        10,1,3,0.0
        11,1,3,0.0
        12,1,3,0.0
        13,1,3,0.0
        14,1,3,0.0
        15,1,3,0.0
        16,1,3,0.0
        17,1,3,0.0
        18,1,3,0.0
        19,1,3,0.0
        20,1,3,0.0
** ... 22 like lines cut
**HWNAME LOADCOL          2 wbc
**HWCOLOR LOADCOL          2    11
*BOUNDARY
       450,1,2,0.0
       451,1,2,0.0
       452,1,2,0.0
       453,1,2,0.0
       454,1,2,0.0
       469,1,2,0.0
       470,1,2,0.0
       473,1,2,0.0
       474,1,2,0.0
       477,1,2,0.0
       478,1,2,0.0
       481,1,2,0.0
       482,1,2,0.0
       509,1,2,0.0
       510,1,2,0.0
       513,1,2,0.0
       514,1,2,0.0
       517,1,2,0.0
       518,1,2,0.0
       521,1,2,0.0
** ... 5 like lines cut
**HWNAME LOADCOL          4 cload
**HWCOLOR LOADCOL          4    11
*CLOAD, AMPLITUDE = loadamp
       450,3,-10.0          
       451,3,-10.0          
       452,3,-10.0          
       453,3,-10.0          
       454,3,-10.0          
       469,3,-10.0          
       470,3,-10.0          
       473,3,-10.0          
       474,3,-10.0          
       477,3,-10.0          
       478,3,-10.0          
       481,3,-10.0          
       482,3,-10.0          
       509,3,-10.0          
       510,3,-10.0          
       513,3,-10.0          
       514,3,-10.0          
       517,3,-10.0          
       518,3,-10.0          
       521,3,-10.0          
** ... 5 like lines cut
*NODE FILE
U,
*EL FILE
S,
E,
*CONTACT FILE
CSTRESS,
CDISP,
*END STEP
*****
