**Nonlinear buckling problem of shell
** This is two stage sample with
**1) creating model with dents
**2) nonlinear calculation with plastic
** For details double-click folder to see aditional files
** See the video-lesson at here:
**https://youtu.be/Je91eMkItts
**<img src="nonlinshellpuckl.jpg">

*NODE, NSET=Nall
       1,6.000000000000e+00,-1.469310784152e-15,1.200220330003e+01
       2,6.000000000000e+00,-1.469310784152e-15,0.000000000000e+00
       3,5.994810000000e+00,2.495910000000e-01,1.200215666005e+01
       4,5.979240000000e+00,4.987500000000e-01,1.200204448006e+01
       5,5.953310000000e+00,7.470450000000e-01,1.200171686806e+01
       6,5.917080000000e+00,9.940470000000e-01,1.200135398004e+01
       7,5.870610000000e+00,1.239330000000e+00,1.200085156798e+01
       8,5.813970000000e+00,1.482460000000e+00,1.200038777798e+01
       9,5.747270000000e+00,1.723030000000e+00,1.199987284200e+01
      10,5.670620000000e+00,1.960620000000e+00,1.199944704800e+01
      11,5.584160000000e+00,2.194810000000e+00,1.199916850002e+01
      12,5.488020000000e+00,2.425200000000e+00,1.199905060804e+01
      13,5.382390000000e+00,2.651400000000e+00,1.199909559201e+01
      14,5.267430000000e+00,2.873000000000e+00,1.199931891998e+01
      15,5.143360000000e+00,3.089630000000e+00,1.199972315600e+01
      16,5.010390000000e+00,3.300920000000e+00,1.200026136599e+01
      17,4.868730000000e+00,3.506480000000e+00,1.200080460404e+01
      18,4.718660000000e+00,3.705980000000e+00,1.200134495804e+01
      19,4.560410000000e+00,3.899060000000e+00,1.200180462594e+01
      20,4.394270000000e+00,4.085390000000e+00,1.200211250008e+01
** ... 22026 like lines cut
*ELEMENT, TYPE=S8R, ELSET=Eall
   351,      1,      3,    350,    199,   7400,   7751,   7750,   7598
   352,      3,      4,    351,    350,   7401,   7753,   7752,   7751
   353,      4,      5,    352,    351,   7402,   7755,   7754,   7753
   354,      5,      6,    353,    352,   7403,   7757,   7756,   7755
   355,      6,      7,    354,    353,   7404,   7759,   7758,   7757
   356,      7,      8,    355,    354,   7405,   7761,   7760,   7759
   357,      8,      9,    356,    355,   7406,   7763,   7762,   7761
   358,      9,     10,    357,    356,   7407,   7765,   7764,   7763
   359,     10,     11,    358,    357,   7408,   7767,   7766,   7765
   360,     11,     12,    359,    358,   7409,   7769,   7768,   7767
   361,     12,     13,    360,    359,   7410,   7771,   7770,   7769
   362,     13,     14,    361,    360,   7411,   7773,   7772,   7771
   363,     14,     15,    362,    361,   7412,   7775,   7774,   7773
   364,     15,     16,    363,    362,   7413,   7777,   7776,   7775
   365,     16,     17,    364,    363,   7414,   7779,   7778,   7777
   366,     17,     18,    365,    364,   7415,   7781,   7780,   7779
   367,     18,     19,    366,    365,   7416,   7783,   7782,   7781
   368,     19,     20,    367,    366,   7417,   7785,   7784,   7783
   369,     20,     21,    368,    367,   7418,   7787,   7786,   7785
   370,     21,     22,    369,    368,   7419,   7789,   7788,   7787
** ... 7228 like lines cut
** Names based on load
*NSET,NSET=load 
1, 
3, 
4, 
5, 
6, 
7, 
8, 
9, 
10, 
11, 
12, 
13, 
14, 
15, 
16, 
17, 
18, 
19, 
20, 
21, 
** ... 282 like lines cut
** Names based on fix
*NSET,NSET=fix 
2, 
200, 
201, 
202, 
203, 
204, 
205, 
206, 
207, 
208, 
209, 
210, 
211, 
212, 
213, 
214, 
215, 
216, 
217, 
218, 
** ... 282 like lines cut
** Names based on Nfix
*NSET,NSET=Nfix 
2, 
200, 
201, 
202, 
203, 
204, 
205, 
206, 
207, 
208, 
209, 
210, 
211, 
212, 
213, 
214, 
215, 
216, 
217, 
218, 
** ... 282 like lines cut
** Names based on Nload
*NSET,NSET=Nload 
1, 
3, 
4, 
5, 
6, 
7, 
8, 
9, 
10, 
11, 
12, 
13, 
14, 
15, 
16, 
17, 
18, 
19, 
20, 
21, 
** ... 282 like lines cut
** Surfaces based on fix
*SURFACE, NAME=fix
** Surfaces based on load
*SURFACE, NAME=load
** Surfaces based on all
*SURFACE, NAME=all
351, SPOS 
501, SPOS 
7448, SPOS 
7598, SPOS 
352, SPOS 
353, SPOS 
354, SPOS 
355, SPOS 
356, SPOS 
357, SPOS 
358, SPOS 
359, SPOS 
360, SPOS 
361, SPOS 
362, SPOS 
363, SPOS 
364, SPOS 
365, SPOS 
366, SPOS 
367, SPOS 
** ... 7228 like lines cut
** Surfaces based on Nfix
*SURFACE, NAME=Nfix
** Surfaces based on Nload
*SURFACE, NAME=Nload

*MATERIAL,NAME=steel
*ELASTIC
2.9000E+07,0.28
*PLASTIC,HARDENING=isotropic
36000,0.0
63000,0.00620689655172414


*DENSITY
7.3500E-04
*EXPANSION
7.2280E-06


*SHELL SECTION,ELSET=Eall,COMPOSITE 
5.2083E-03,,steel
5.2083E-03,,steel
5.2083E-03,,steel
5.2083E-03,,steel
5.2083E-03,,steel
5.2083E-03,,steel
5.2083E-03,,steel
5.2083E-03,,steel
5.2083E-03,,steel
5.2083E-03,,steel
5.2083E-03,,steel
5.2083E-03,,steel

*BOUNDARY
fix,1,1,0
fix,2,2,0
fix,3,3,0

*BOUNDARY
load,1,1,0
load,2,2,0


*TIME POINTS,NAME=T1,GENERATE
0,1,2.0000E-02

*STEP,NLGEOM,INC=100000
*STATIC
0.01,1
*CLOAD
load,3,-1.4167E+03

  *NODE FILE ,TIME POINTS=T1
U,
  *EL FILE,TIME POINTS=T1
S,PEEQ,
*NODE PRINT,NSET=fix,TIME POINTS=T1
RF
*NODE PRINT,NSET=load,TIME POINTS=T1
RF
*END STEP
