**Limit load
**Double-click on folder to see more files
**See the article here
**http://calculixforwin.blogspot.com/2016/12/limit-state-in-calculix-lrfd.html
**<img src="lrfd.jpg">

*NODE, NSET=Nall
       1,0.000000000000e+00,0.000000000000e+00,3.000000000000e+01
       2,0.000000000000e+00,5.000000000000e-01,3.000000000000e+01
       3,2.750000000000e+00,5.000000000000e-01,3.000000000000e+01
       4,2.750000000000e+00,5.500000000000e+00,3.000000000000e+01
       5,0.000000000000e+00,5.500000000000e+00,3.000000000000e+01
       6,0.000000000000e+00,6.000000000000e+00,3.000000000000e+01
       7,6.000000000000e+00,6.000000000000e+00,3.000000000000e+01
       8,6.000000000000e+00,5.500000000000e+00,3.000000000000e+01
       9,3.250000000000e+00,5.500000000000e+00,3.000000000000e+01
      10,3.250000000000e+00,5.000000000000e-01,3.000000000000e+01
      11,6.000000000000e+00,5.000000000000e-01,3.000000000000e+01
      12,6.000000000000e+00,0.000000000000e+00,3.000000000000e+01
      13,6.000000000000e+00,0.000000000000e+00,0.000000000000e+00
      14,0.000000000000e+00,0.000000000000e+00,0.000000000000e+00
      15,6.000000000000e+00,5.000000000000e-01,0.000000000000e+00
      16,3.250000000000e+00,5.000000000000e-01,0.000000000000e+00
      17,3.250000000000e+00,5.500000000000e+00,0.000000000000e+00
      18,6.000000000000e+00,5.500000000000e+00,0.000000000000e+00
      19,6.000000000000e+00,6.000000000000e+00,0.000000000000e+00
      20,0.000000000000e+00,6.000000000000e+00,0.000000000000e+00
** ... 7064 like lines cut
*ELEMENT, TYPE=C3D20, ELSET=Eall
  2631,     2,    25,    62,     1,   530,   648,  2050,   140,  2177,  6125,
        2630,  2132,  2936,  6149,  6093,  2669,  2130,  2943,  6100,  2090
  2632,   530,   648,  2050,   140,   529,   645,  2043,   139,  2936,  6149,
        6093,  2669,  2929,  6150,  6078,  2668,  2129,  2937,  6092,  2089
  2633,   529,   645,  2043,   139,   528,   642,  2036,   138,  2929,  6150,
        6078,  2668,  2922,  6151,  6063,  2667,  2128,  2930,  6077,  2088
  2634,   528,   642,  2036,   138,   527,   639,  2029,   137,  2922,  6151,
        6063,  2667,  2915,  6152,  6048,  2666,  2127,  2923,  6062,  2087
  2635,   527,   639,  2029,   137,   526,   636,  2022,   136,  2915,  6152,
        6048,  2666,  2908,  6153,  6033,  2665,  2126,  2916,  6047,  2086
  2636,   526,   636,  2022,   136,   525,   633,  2015,   135,  2908,  6153,
        6033,  2665,  2901,  6154,  6018,  2664,  2125,  2909,  6032,  2085
  2637,   525,   633,  2015,   135,   524,   630,  2008,   134,  2901,  6154,
        6018,  2664,  2894,  6155,  6003,  2663,  2124,  2902,  6017,  2084
  2638,   524,   630,  2008,   134,   523,   627,  2001,   133,  2894,  6155,
        6003,  2663,  2887,  6156,  5988,  2662,  2123,  2895,  6002,  2083
  2639,   523,   627,  2001,   133,   522,   624,  1994,   132,  2887,  6156,
        5988,  2662,  2880,  6157,  5973,  2661,  2122,  2888,  5987,  2082
  2640,   522,   624,  1994,   132,   521,   621,  1987,   131,  2880,  6157,
        5973,  2661,  2873,  6158,  5958,  2660,  2121,  2881,  5972,  2081
** ... 1820 like lines cut
*ELEMENT, TYPE=C3D15, ELSET=Eall
  3551,     4,    40,     9,   452,  1287,   257,  6146,  6142,  6140,
        6930,  6774,  6734,  2220,  4362,  2462
  3552,   452,  1287,   257,   451,  1280,   256,  6930,  6774,  6734,
        6932,  6776,  6735,  2219,  4351,  2461
  3553,   451,  1280,   256,   450,  1273,   255,  6932,  6776,  6735,
        6934,  6778,  6736,  2218,  4336,  2460
  3554,   450,  1273,   255,   449,  1266,   254,  6934,  6778,  6736,
        6936,  6780,  6737,  2217,  4321,  2459
  3555,   449,  1266,   254,   448,  1259,   253,  6936,  6780,  6737,
        6938,  6782,  6738,  2216,  4306,  2458
  3556,   448,  1259,   253,   447,  1252,   252,  6938,  6782,  6738,
        6940,  6784,  6739,  2215,  4291,  2457
  3557,   447,  1252,   252,   446,  1245,   251,  6940,  6784,  6739,
        6942,  6786,  6740,  2214,  4276,  2456
  3558,   446,  1245,   251,   445,  1238,   250,  6942,  6786,  6740,
        6944,  6788,  6741,  2213,  4261,  2455
  3559,   445,  1238,   250,   444,  1231,   249,  6944,  6788,  6741,
        6946,  6790,  6742,  2212,  4246,  2454
  3560,   444,  1231,   249,   443,  1224,   248,  6946,  6790,  6742,
        6948,  6792,  6743,  2211,  4231,  2453
** ... 140 like lines cut
** Names based on uz
*NSET,NSET=uz 
13, 
14, 
15, 
16, 
17, 
18, 
19, 
20, 
21, 
22, 
23, 
24, 
531, 
532, 
533, 
651, 
652, 
653, 
654, 
655, 
** ... 104 like lines cut
** Names based on moment-load
*NSET,NSET=moment-load 
1, 
2, 
3, 
4, 
5, 
6, 
7, 
8, 
9, 
10, 
11, 
12, 
25, 
26, 
27, 
28, 
29, 
30, 
31, 
32, 
** ... 104 like lines cut
** Names based on ux
*NSET,NSET=ux 
20, 
24, 
** Names based on C3D15
*ELSET,ELSET=C3D15 
3551, 
3552, 
3553, 
3554, 
3555, 
3556, 
3557, 
3558, 
3559, 
3560, 
3561, 
3562, 
3563, 
3564, 
3565, 
3566, 
3567, 
3568, 
3569, 
3570, 
** ... 60 like lines cut
** Names based on uy
*NSET,NSET=uy 
13, 
14, 
1771, 
1772, 
1773, 
1774, 
1775, 
1776, 
1777, 
2615, 
2616, 
2617, 
2618, 
2619, 
2620, 
2621, 
2622, 
** Names based on C3D20
*ELSET,ELSET=C3D20 
2631, 
2632, 
2633, 
2634, 
2635, 
2636, 
2637, 
2638, 
2639, 
2640, 
2641, 
2642, 
2643, 
2644, 
2645, 
2646, 
2647, 
2648, 
2649, 
2650, 
** ... 900 like lines cut
** Surfaces based on uz
*SURFACE, NAME=uz
2950, S2
2670, S2
2990, S2
3630, S2
2830, S2
3230, S2
3590, S2
3270, S2
3390, S2
3550, S2
3430, S2
2790, S2
2710, S2
2750, S2
3030, S2
3070, S2
3110, S2
3150, S2
3190, S2
3470, S2
** ... 5 like lines cut
** Surfaces based on ux
*SURFACE, NAME=ux
** Surfaces based on C3D20
*SURFACE, NAME=C3D20
** Surfaces based on uy
*SURFACE, NAME=uy
** Surfaces based on all
*SURFACE, NAME=all
2631, S1
2631, S6
2631, S5
2631, S3
2951, S1
3591, S1
2751, S1
2751, S4
2951, S4
3191, S1
3551, S1
3191, S4
3391, S1
3391, S4
3511, S1
3511, S5
3511, S4
3511, S6
3351, S1
3351, S5
** ... 2030 like lines cut
** Surfaces based on moment-load
*SURFACE, NAME=moment-load
2631, S1
2951, S1
3591, S1
2751, S1
3191, S1
3551, S1
3391, S1
3511, S1
3351, S1
3231, S1
2791, S1
2911, S1
2671, S1
2711, S1
2991, S1
3031, S1
3071, S1
3111, S1
3151, S1
3431, S1
** ... 5 like lines cut
** Surfaces based on C3D15
*SURFACE, NAME=C3D15

*MATERIAL,NAME=steel
*ELASTIC
2.9000E+07,0.28
*PLASTIC,HARDENING=isotropic
50000,0.0
75000,0.00862068965517241


*DENSITY
7.3500E-04
*EXPANSION
7.2280E-06

*SOLID SECTION,MATERIAL=steel,ELSET=Eall

*BOUNDARY
uz,3,3,0

*BOUNDARY
uy,2,2,0

*BOUNDARY
ux,1,1,0

*NODE
8085,0,0,0
*RIGID BODY,NSET=moment-load,,ROT NODE=8085


*TIME POINTS,NAME=T1,GENERATE
0,1,5.0000E-02

*STEP,NLGEOM,INC=100
*STATIC
0.05,1
*CLOAD
8085,1,9.8125E+05

  *NODE FILE ,TIME POINTS=T1
U,
  *EL FILE,TIME POINTS=T1
S,
*NODE PRINT,NSET=uz,TIME POINTS=T1
RF
*NODE PRINT,NSET=uy,TIME POINTS=T1
RF
*NODE PRINT,NSET=ux,TIME POINTS=T1
RF
*END STEP
