**Dip hot galvanizing
** Example for COUPLED TEMPERATURE-DISPLACEMENT problem
** Model for Salome-Platfrom is provided
** Double-click by folder to see it.


*INCLUDE, INPUT=Mesh_OUT.inp

*PHYSICAL CONSTANTS, ABSOLUTE ZERO=-273.15, STEFAN BOLTZMANN=5.669E-8

*MATERIAL, NAME=steel
*ELASTIC
2e11,0.285
*DENSITY
7850

**THERMAL PROPERTIES
*CONDUCTIVITY 
44.8
*SPECIFIC HEAT
480
*EXPANSION
13.8e-6

*SOLID SECTION,MATERIAL=steel,ELSET=C3D10,

*INITIAL CONDITIONS,TYPE=TEMPERATURE
Nall,293

*STEP,NLGEOM
*COUPLED TEMPERATURE-DISPLACEMENT,DIRECT
0.1,10

*BOUNDARY 
FixX,1,1
FixY,2,2

*BOUNDARY 
Temp, 11,11,693

*NODE FILE 
NT,U
*EL FILE
S
*END STEP
