**Wavesping
**https://youtu.be/F4TmM82z8b4
**<img src="waved.jpg">

*NODE, NSET=Nall
       1,-1.469576000000e-16,-1.000000000000e-01,6.000000000000e-01
       2,-1.469576000000e-16,0.000000000000e+00,6.000000000000e-01
       3,-1.469576000000e-16,7.600000000000e-02,6.000000000000e-01
       4,-1.469576000000e-16,1.760000000000e-01,6.000000000000e-01
       5,9.875675000000e-02,-1.000000000000e-01,5.918168000000e-01
       6,1.948197000000e-01,-1.000000000000e-01,5.674903000000e-01
       7,2.855684000000e-01,-1.000000000000e-01,5.276843000000e-01
       8,3.685276000000e-01,-1.000000000000e-01,4.734843000000e-01
       9,4.414343000000e-01,-1.000000000000e-01,4.063689000000e-01
      10,5.022999000000e-01,-1.000000000000e-01,3.281689000000e-01
      11,5.494640000000e-01,-1.000000000000e-01,2.410173000000e-01
      12,5.816402000000e-01,-1.000000000000e-01,1.472913000000e-01
      13,5.979507000000e-01,-1.000000000000e-01,4.954761000000e-02
      14,5.979507000000e-01,-1.000000000000e-01,-4.954761000000e-02
      15,5.816402000000e-01,-1.000000000000e-01,-1.472913000000e-01
      16,5.494640000000e-01,-1.000000000000e-01,-2.410173000000e-01
      17,5.022999000000e-01,-1.000000000000e-01,-3.281689000000e-01
      18,4.414343000000e-01,-1.000000000000e-01,-4.063689000000e-01
      19,3.685276000000e-01,-1.000000000000e-01,-4.734843000000e-01
      20,2.855684000000e-01,-1.000000000000e-01,-5.276843000000e-01
** ... 7112 like lines cut
*ELEMENT, TYPE=C3D10, ELSET=Eall
  1355,   302,   285,   168,   194,  4433,  6152,  6151,  6153,  6154,  4824 
  1356,   194,   219,   323,   195,  4904,  6156,  6155,  4861,  4907,  6157 
  1357,   189,   162,   298,   161,  4809,  6159,  6158,  4808,  4723,  6160 
  1358,   169,   195,   194,   285,  4825,  4861,  4828,  6161,  6162,  6154 
  1359,   194,   195,   323,   285,  4861,  6157,  6155,  6154,  6162,  4490 
  1360,   323,   195,   303,   285,  6157,  6163,  4493,  4490,  6162,  4454 
  1361,   228,   351,   350,   340,  6165,  4589,  6164,  6166,  4588,  4586 
  1362,   344,   218,   199,   198,  6168,  4901,  6167,  6169,  4900,  4841 
  1363,   179,   291,   309,   202,  6171,  4448,  6170,  4847,  6173,  6172 
  1364,   200,   212,   199,   329,  4885,  4906,  4864,  6174,  6176,  6175 
  1365,   298,   161,   243,   280,  6160,  6177,  4400,  4459,  6178,  4359 
  1366,   290,   176,   177,   272,  6180,  4793,  6179,  4380,  6182,  6181 
  1367,   314,   209,   336,   361,  6184,  6183,  4531,  4621,  6185,  4622 
  1368,   277,   185,   335,   186,  6187,  6186,  4526,  6188,  4801,  6189 
  1369,   323,   219,   215,   195,  6156,  4918,  6190,  6157,  4907,  4892 
  1370,   234,   228,   232,   372,  4966,  4958,  4967,  6191,  6193,  6192 
  1371,   168,   285,   169,   194,  6152,  6161,  4791,  4824,  6154,  4828 
  1372,   215,   216,   325,   196,  4896,  6195,  6194,  4893,  4894,  6196 
  1373,   309,   202,   332,   203,  6172,  6197,  4519,  6198,  4851,  6199 
  1374,    26,   249,   268,    63,  6201,  4342,  6200,  4204,  4259,  4298 
** ... 1558 like lines cut
*ELEMENT, TYPE=C3D20, ELSET=Eall
  4535,   613,   771,  1253,   834,   611,   760,  1039,   701,  1891,  2780,
        2779,  1958,  1877,  2466,  2465,  1817,  1892,  2774,  5807,  3244
*ELEMENT, TYPE=C3D15, ELSET=Eall
  4536,   834,  1253,   833,   701,  1039,   702,  2779,  2781,  1957,
        2465,  2463,  1818,  3244,  5807,  3243
*ELEMENT, TYPE=C3D20, ELSET=Eall
  4537,   833,  1253,  1252,   832,   702,  1039,  1040,   703,  2781,  2783,
        2782,  1956,  2463,  2464,  2461,  1819,  3243,  5807,  5808,  3242
  4538,   832,  1252,  1251,   831,   703,  1040,  1041,   704,  2782,  2785,
        2784,  1955,  2461,  2462,  2459,  1820,  3242,  5808,  5809,  3241
  4539,   831,  1251,  1250,   830,   704,  1041,  1042,   705,  2784,  2787,
        2786,  1954,  2459,  2460,  2458,  1821,  3241,  5809,  5810,  3240
*ELEMENT, TYPE=C3D15, ELSET=Eall
  4540,   830,  1250,   829,   705,  1042,   706,  2786,  2788,  1953,
        2458,  2456,  1822,  3240,  5810,  3239
*ELEMENT, TYPE=C3D20, ELSET=Eall
  4541,   829,  1250,  1249,   828,   706,  1042,  1043,   707,  2788,  2790,
        2789,  1952,  2456,  2457,  2454,  1823,  3239,  5810,  5811,  3238
  4542,   828,  1249,  1248,   827,   707,  1043,  1044,   708,  2789,  2792,
        2791,  1951,  2454,  2455,  2452,  1824,  3238,  5811,  5812,  3237
  4543,   827,  1248,  1247,   826,   708,  1044,  1045,   709,  2791,  2794,
        2793,  1950,  2452,  2453,  2451,  1825,  3237,  5812,  5813,  3236
*ELEMENT, TYPE=C3D15, ELSET=Eall
  4544,   826,  1247,   825,   709,  1045,   710,  2793,  2795,  1949,
        2451,  2449,  1826,  3236,  5813,  3235
*ELEMENT, TYPE=C3D20, ELSET=Eall
  4545,   825,  1247,  1246,   824,   710,  1045,  1046,   711,  2795,  2797,
        2796,  1948,  2449,  2450,  2447,  1827,  3235,  5813,  5814,  3234
  4546,   824,  1246,  1245,   823,   711,  1046,  1047,   712,  2796,  2799,
        2798,  1947,  2447,  2448,  2445,  1828,  3234,  5814,  5815,  3233
  4547,   823,  1245,  1244,   822,   712,  1047,  1048,   713,  2798,  2801,
        2800,  1946,  2445,  2446,  2444,  1829,  3233,  5815,  5816,  3232
*ELEMENT, TYPE=C3D15, ELSET=Eall
  4548,   822,  1244,   821,   713,  1048,   714,  2800,  2802,  1945,
        2444,  2442,  1830,  3232,  5816,  3231
*ELEMENT, TYPE=C3D20, ELSET=Eall
  4549,   821,  1244,  1243,   820,   714,  1048,  1049,   715,  2802,  2804,
        2803,  1944,  2442,  2443,  2440,  1831,  3231,  5816,  5817,  3230
  4550,   820,  1243,  1242,   819,   715,  1049,  1050,   716,  2803,  2806,
        2805,  1943,  2440,  2441,  2439,  1832,  3230,  5817,  5818,  3229
*ELEMENT, TYPE=C3D15, ELSET=Eall
  4551,   819,  1242,   818,   716,  1050,   717,  2805,  2807,  1942,
        2439,  2437,  1833,  3229,  5818,  3228
*ELEMENT, TYPE=C3D20, ELSET=Eall
  4552,   818,  1242,  1241,   817,   717,  1050,  1051,   718,  2807,  2809,
        2808,  1941,  2437,  2438,  2435,  1834,  3228,  5818,  5819,  3227
  4553,   817,  1241,  1240,   816,   718,  1051,  1052,   719,  2808,  2811,
        2810,  1940,  2435,  2436,  2433,  1835,  3227,  5819,  5820,  3226
  4554,   816,  1240,  1239,   815,   719,  1052,  1053,   720,  2810,  2813,
        2812,  1939,  2433,  2434,  2432,  1836,  3226,  5820,  5821,  3225
*ELEMENT, TYPE=C3D15, ELSET=Eall
  4555,   815,  1239,   814,   720,  1053,   721,  2812,  2814,  1938,
        2432,  2430,  1837,  3225,  5821,  3224
*ELEMENT, TYPE=C3D20, ELSET=Eall
  4556,   814,  1239,  1238,   813,   721,  1053,  1054,   722,  2814,  2816,
        2815,  1937,  2430,  2431,  2428,  1838,  3224,  5821,  5822,  3223
  4557,   813,  1238,  1237,   812,   722,  1054,  1055,   723,  2815,  2818,
        2817,  1936,  2428,  2429,  2426,  1839,  3223,  5822,  5823,  3222
  4558,   812,  1237,  1236,   811,   723,  1055,  1056,   724,  2817,  2820,
        2819,  1935,  2426,  2427,  2425,  1840,  3222,  5823,  5824,  3221
*ELEMENT, TYPE=C3D15, ELSET=Eall
  4559,   811,  1236,   810,   724,  1056,   725,  2819,  2821,  1934,
        2425,  2423,  1841,  3221,  5824,  3220
*ELEMENT, TYPE=C3D20, ELSET=Eall
  4560,   810,  1236,  1235,   809,   725,  1056,  1057,   726,  2821,  2823,
        2822,  1933,  2423,  2424,  2421,  1842,  3220,  5824,  5825,  3219
  4561,   809,  1235,  1234,   808,   726,  1057,  1058,   727,  2822,  2825,
        2824,  1932,  2421,  2422,  2419,  1843,  3219,  5825,  5826,  3218
  4562,   808,  1234,  1233,   807,   727,  1058,  1059,   728,  2824,  2827,
        2826,  1931,  2419,  2420,  2418,  1844,  3218,  5826,  5827,  3217
*ELEMENT, TYPE=C3D15, ELSET=Eall
  4563,   807,  1233,   806,   728,  1059,   729,  2826,  2828,  1930,
        2418,  2416,  1845,  3217,  5827,  3216
*ELEMENT, TYPE=C3D20, ELSET=Eall
  4564,   806,  1233,  1232,   805,   729,  1059,  1060,   730,  2828,  2830,
        2829,  1929,  2416,  2417,  2414,  1846,  3216,  5827,  5828,  3215
  4565,   805,  1232,  1231,   804,   730,  1060,  1061,   731,  2829,  2832,
        2831,  1928,  2414,  2415,  2413,  1847,  3215,  5828,  5829,  3214
*ELEMENT, TYPE=C3D15, ELSET=Eall
  4566,   804,  1231,   803,   731,  1061,   732,  2831,  2833,  1927,
        2413,  2411,  1848,  3214,  5829,  3213
*ELEMENT, TYPE=C3D20, ELSET=Eall
  4567,   803,  1231,  1230,   802,   732,  1061,  1062,   733,  2833,  2835,
        2834,  1926,  2411,  2412,  2409,  1849,  3213,  5829,  5830,  3212
  4568,   802,  1230,  1229,   801,   733,  1062,  1063,   734,  2834,  2837,
        2836,  1925,  2409,  2410,  2407,  1850,  3212,  5830,  5831,  3211
  4569,   801,  1229,  1228,   800,   734,  1063,  1064,   735,  2836,  2839,
        2838,  1924,  2407,  2408,  2406,  1851,  3211,  5831,  5832,  3210
*ELEMENT, TYPE=C3D15, ELSET=Eall
  4570,   800,  1228,   799,   735,  1064,   736,  2838,  2840,  1923,
        2406,  2404,  1852,  3210,  5832,  3209
*ELEMENT, TYPE=C3D20, ELSET=Eall
  4571,   799,  1228,  1227,   798,   736,  1064,  1065,   737,  2840,  2842,
        2841,  1922,  2404,  2405,  2402,  1853,  3209,  5832,  5833,  3208
  4572,   798,  1227,  1226,   797,   737,  1065,  1066,   738,  2841,  2844,
        2843,  1921,  2402,  2403,  2400,  1854,  3208,  5833,  5834,  3207
  4573,   797,  1226,  1225,   796,   738,  1066,  1067,   739,  2843,  2846,
        2845,  1920,  2400,  2401,  2399,  1855,  3207,  5834,  5835,  3206
*ELEMENT, TYPE=C3D15, ELSET=Eall
  4574,   796,  1225,   795,   739,  1067,   740,  2845,  2847,  1919,
        2399,  2397,  1856,  3206,  5835,  3205
*ELEMENT, TYPE=C3D20, ELSET=Eall
  4575,   795,  1225,  1224,   794,   740,  1067,  1068,   741,  2847,  2849,
        2848,  1918,  2397,  2398,  2395,  1857,  3205,  5835,  5836,  3204
  4576,   794,  1224,  1223,   793,   741,  1068,  1069,   742,  2848,  2851,
        2850,  1917,  2395,  2396,  2393,  1858,  3204,  5836,  5837,  3203
  4577,   793,  1223,  1222,   792,   742,  1069,  1070,   743,  2850,  2853,
        2852,  1916,  2393,  2394,  2392,  1859,  3203,  5837,  5838,  3202
*ELEMENT, TYPE=C3D15, ELSET=Eall
  4578,   792,  1222,   791,   743,  1070,   744,  2852,  2854,  1915,
        2392,  2390,  1860,  3202,  5838,  3201
*ELEMENT, TYPE=C3D20, ELSET=Eall
  4579,   791,  1222,  1221,   790,   744,  1070,  1071,   745,  2854,  2856,
        2855,  1914,  2390,  2391,  2388,  1861,  3201,  5838,  5839,  3200
  4580,   790,  1221,  1220,   789,   745,  1071,  1072,   746,  2855,  2858,
        2857,  1913,  2388,  2389,  2387,  1862,  3200,  5839,  5840,  3199
*ELEMENT, TYPE=C3D15, ELSET=Eall
  4581,   789,  1220,   788,   746,  1072,   747,  2857,  2859,  1912,
        2387,  2385,  1863,  3199,  5840,  3198
*ELEMENT, TYPE=C3D20, ELSET=Eall
  4582,   788,  1220,  1219,   787,   747,  1072,  1073,   748,  2859,  2861,
        2860,  1911,  2385,  2386,  2383,  1864,  3198,  5840,  5841,  3197
  4583,   787,  1219,  1218,   786,   748,  1073,  1074,   749,  2860,  2863,
        2862,  1910,  2383,  2384,  2381,  1865,  3197,  5841,  5842,  3196
  4584,   786,  1218,  1217,   785,   749,  1074,  1075,   750,  2862,  2865,
        2864,  1909,  2381,  2382,  2380,  1866,  3196,  5842,  5843,  3195
*ELEMENT, TYPE=C3D15, ELSET=Eall
  4585,   785,  1217,   784,   750,  1075,   751,  2864,  2866,  1908,
        2380,  2378,  1867,  3195,  5843,  3194
*ELEMENT, TYPE=C3D20, ELSET=Eall
  4586,   784,  1217,  1216,   783,   751,  1075,  1076,   752,  2866,  2868,
        2867,  1907,  2378,  2379,  2376,  1868,  3194,  5843,  5844,  3193
  4587,   783,  1216,  1215,   782,   752,  1076,  1077,   753,  2867,  2870,
        2869,  1906,  2376,  2377,  2374,  1869,  3193,  5844,  5845,  3192
  4588,   782,  1215,  1214,   781,   753,  1077,  1078,   754,  2869,  2872,
        2871,  1905,  2374,  2375,  2373,  1870,  3192,  5845,  5846,  3191
*ELEMENT, TYPE=C3D15, ELSET=Eall
  4589,   781,  1214,   780,   754,  1078,   755,  2871,  2873,  1904,
        2373,  2371,  1871,  3191,  5846,  3190
*ELEMENT, TYPE=C3D20, ELSET=Eall
  4590,   780,  1214,  1213,   779,   755,  1078,  1079,   756,  2873,  2875,
        2874,  1903,  2371,  2372,  2369,  1872,  3190,  5846,  5847,  3189
  4591,   779,  1213,  1212,   778,   756,  1079,  1080,   757,  2874,  2877,
        2876,  1902,  2369,  2370,  2367,  1873,  3189,  5847,  5848,  3188
  4592,   778,  1212,  1211,   777,   757,  1080,  1081,   758,  2876,  2879,
        2878,  1901,  2367,  2368,  2366,  1874,  3188,  5848,  5849,  3187
*ELEMENT, TYPE=C3D15, ELSET=Eall
  4593,   777,  1211,   776,   758,  1081,   759,  2878,  2880,  1900,
        2366,  2364,  1875,  3187,  5849,  3186
*ELEMENT, TYPE=C3D20, ELSET=Eall
  4594,   776,  1211,   775,   614,   759,  1081,   764,   612,  2880,  2881,
        1898,  1899,  2364,  2365,  1882,  1876,  3186,  5849,  2775,  1893
  4595,   610,   772,  1254,   700,   608,   767,  1208,   657,  1894,  2883,
        2882,  1816,  1886,  2768,  2761,  1770,  1772,  2778,  5850,  2321
  4596,   772,   773,  1255,  1254,   767,   766,  1209,  1208,  1895,  2885,
        2884,  2883,  1885,  2769,  2763,  2768,  2778,  2777,  5851,  5850
  4597,   773,   774,  1256,  1255,   766,   765,  1210,  1209,  1896,  2887,
        2886,  2885,  1884,  2770,  2765,  2769,  2777,  2776,  5852,  5851
  4598,   774,   775,  1211,  1256,   765,   764,  1081,  1210,  1897,  2881,
        2888,  2887,  1883,  2365,  2767,  2770,  2776,  2775,  5849,  5852
  4599,   700,  1254,  1257,   699,   657,  1208,  1205,   656,  2882,  2890,
        2889,  1815,  2761,  2762,  2754,  1769,  2321,  5850,  5853,  2322
  4600,  1254,  1255,  1258,  1257,  1208,  1209,  1206,  1205,  2884,  2892,
        2891,  2890,  2763,  2764,  2756,  2762,  5850,  5851,  5854,  5853
  4601,  1255,  1256,  1259,  1258,  1209,  1210,  1207,  1206,  2886,  2894,
        2893,  2892,  2765,  2766,  2758,  2764,  5851,  5852,  5855,  5854
  4602,  1256,  1211,  1212,  1259,  1210,  1081,  1080,  1207,  2888,  2879,
        2895,  2894,  2767,  2368,  2760,  2766,  5852,  5849,  5848,  5855
  4603,   699,  1257,  1260,   698,   656,  1205,  1202,   655,  2889,  2897,
        2896,  1814,  2754,  2755,  2747,  1768,  2322,  5853,  5856,  2323
** ... 336 like lines cut
*ELEMENT, TYPE=C3D15, ELSET=Eall
  4772,  1038,  1597,  1037,   921,  1383,   922,  3695,  3697,  2165,
        3389,  3387,  2048,  4160,  5979,  4159
*ELEMENT, TYPE=C3D20, ELSET=Eall
  4773,  1037,  1597,  1596,  1036,   922,  1383,  1384,   923,  3697,  3699,
        3698,  2164,  3387,  3388,  3385,  2049,  4159,  5979,  5980,  4158
  4774,  1036,  1596,  1595,  1035,   923,  1384,  1385,   924,  3698,  3701,
        3700,  2163,  3385,  3386,  3383,  2050,  4158,  5980,  5981,  4157
  4775,  1035,  1595,  1594,  1034,   924,  1385,  1386,   925,  3700,  3703,
        3702,  2162,  3383,  3384,  3382,  2051,  4157,  5981,  5982,  4156
*ELEMENT, TYPE=C3D15, ELSET=Eall
  4776,  1034,  1594,  1033,   925,  1386,   926,  3702,  3704,  2161,
        3382,  3380,  2052,  4156,  5982,  4155
*ELEMENT, TYPE=C3D20, ELSET=Eall
  4777,  1033,  1594,  1593,  1032,   926,  1386,  1387,   927,  3704,  3706,
        3705,  2160,  3380,  3381,  3378,  2053,  4155,  5982,  5983,  4154
  4778,  1032,  1593,  1592,  1031,   927,  1387,  1388,   928,  3705,  3708,
        3707,  2159,  3378,  3379,  3376,  2054,  4154,  5983,  5984,  4153
  4779,  1031,  1592,  1591,  1030,   928,  1388,  1389,   929,  3707,  3710,
        3709,  2158,  3376,  3377,  3375,  2055,  4153,  5984,  5985,  4152
*ELEMENT, TYPE=C3D15, ELSET=Eall
  4780,  1030,  1591,  1029,   929,  1389,   930,  3709,  3711,  2157,
        3375,  3373,  2056,  4152,  5985,  4151
*ELEMENT, TYPE=C3D20, ELSET=Eall
  4781,  1029,  1591,  1590,  1028,   930,  1389,  1390,   931,  3711,  3713,
        3712,  2156,  3373,  3374,  3371,  2057,  4151,  5985,  5986,  4150
  4782,  1028,  1590,  1589,  1027,   931,  1390,  1391,   932,  3712,  3715,
        3714,  2155,  3371,  3372,  3369,  2058,  4150,  5986,  5987,  4149
  4783,  1027,  1589,  1588,  1026,   932,  1391,  1392,   933,  3714,  3717,
        3716,  2154,  3369,  3370,  3368,  2059,  4149,  5987,  5988,  4148
*ELEMENT, TYPE=C3D15, ELSET=Eall
  4784,  1026,  1588,  1025,   933,  1392,   934,  3716,  3718,  2153,
        3368,  3366,  2060,  4148,  5988,  4147
*ELEMENT, TYPE=C3D20, ELSET=Eall
  4785,  1025,  1588,  1587,  1024,   934,  1392,  1393,   935,  3718,  3720,
        3719,  2152,  3366,  3367,  3364,  2061,  4147,  5988,  5989,  4146
  4786,  1024,  1587,  1586,  1023,   935,  1393,  1394,   936,  3719,  3722,
        3721,  2151,  3364,  3365,  3363,  2062,  4146,  5989,  5990,  4145
*ELEMENT, TYPE=C3D15, ELSET=Eall
  4787,  1023,  1586,  1022,   936,  1394,   937,  3721,  3723,  2150,
        3363,  3361,  2063,  4145,  5990,  4144
*ELEMENT, TYPE=C3D20, ELSET=Eall
  4788,  1022,  1586,  1585,  1021,   937,  1394,  1395,   938,  3723,  3725,
        3724,  2149,  3361,  3362,  3359,  2064,  4144,  5990,  5991,  4143
  4789,  1021,  1585,  1584,  1020,   938,  1395,  1396,   939,  3724,  3727,
        3726,  2148,  3359,  3360,  3357,  2065,  4143,  5991,  5992,  4142
  4790,  1020,  1584,  1583,  1019,   939,  1396,  1397,   940,  3726,  3729,
        3728,  2147,  3357,  3358,  3356,  2066,  4142,  5992,  5993,  4141
*ELEMENT, TYPE=C3D15, ELSET=Eall
  4791,  1019,  1583,  1018,   940,  1397,   941,  3728,  3730,  2146,
        3356,  3354,  2067,  4141,  5993,  4140
*ELEMENT, TYPE=C3D20, ELSET=Eall
  4792,  1018,  1583,  1582,  1017,   941,  1397,  1398,   942,  3730,  3732,
        3731,  2145,  3354,  3355,  3352,  2068,  4140,  5993,  5994,  4139
  4793,  1017,  1582,  1581,  1016,   942,  1398,  1399,   943,  3731,  3734,
        3733,  2144,  3352,  3353,  3350,  2069,  4139,  5994,  5995,  4138
  4794,  1016,  1581,  1580,  1015,   943,  1399,  1400,   944,  3733,  3736,
        3735,  2143,  3350,  3351,  3349,  2070,  4138,  5995,  5996,  4137
*ELEMENT, TYPE=C3D15, ELSET=Eall
  4795,  1015,  1580,  1014,   944,  1400,   945,  3735,  3737,  2142,
        3349,  3347,  2071,  4137,  5996,  4136
*ELEMENT, TYPE=C3D20, ELSET=Eall
  4796,  1014,  1580,  1579,  1013,   945,  1400,  1401,   946,  3737,  3739,
        3738,  2141,  3347,  3348,  3345,  2072,  4136,  5996,  5997,  4135
  4797,  1013,  1579,  1578,  1012,   946,  1401,  1402,   947,  3738,  3741,
        3740,  2140,  3345,  3346,  3343,  2073,  4135,  5997,  5998,  4134
  4798,  1012,  1578,  1577,  1011,   947,  1402,  1403,   948,  3740,  3743,
        3742,  2139,  3343,  3344,  3342,  2074,  4134,  5998,  5999,  4133
*ELEMENT, TYPE=C3D15, ELSET=Eall
  4799,  1011,  1577,  1010,   948,  1403,   949,  3742,  3744,  2138,
        3342,  3340,  2075,  4133,  5999,  4132
*ELEMENT, TYPE=C3D20, ELSET=Eall
  4800,  1010,  1577,  1576,  1009,   949,  1403,  1404,   950,  3744,  3746,
        3745,  2137,  3340,  3341,  3338,  2076,  4132,  5999,  6000,  4131
  4801,  1009,  1576,  1575,  1008,   950,  1404,  1405,   951,  3745,  3748,
        3747,  2136,  3338,  3339,  3337,  2077,  4131,  6000,  6001,  4130
*ELEMENT, TYPE=C3D15, ELSET=Eall
  4802,  1008,  1575,  1007,   951,  1405,   952,  3747,  3749,  2135,
        3337,  3335,  2078,  4130,  6001,  4129
*ELEMENT, TYPE=C3D20, ELSET=Eall
  4803,  1007,  1575,  1574,  1006,   952,  1405,  1406,   953,  3749,  3751,
        3750,  2134,  3335,  3336,  3333,  2079,  4129,  6001,  6002,  4128
  4804,  1006,  1574,  1573,  1005,   953,  1406,  1407,   954,  3750,  3753,
        3752,  2133,  3333,  3334,  3331,  2080,  4128,  6002,  6003,  4127
  4805,  1005,  1573,  1572,  1004,   954,  1407,  1408,   955,  3752,  3755,
        3754,  2132,  3331,  3332,  3330,  2081,  4127,  6003,  6004,  4126
*ELEMENT, TYPE=C3D15, ELSET=Eall
  4806,  1004,  1572,  1003,   955,  1408,   956,  3754,  3756,  2131,
        3330,  3328,  2082,  4126,  6004,  4125
*ELEMENT, TYPE=C3D20, ELSET=Eall
  4807,  1003,  1572,  1571,  1002,   956,  1408,  1409,   957,  3756,  3758,
        3757,  2130,  3328,  3329,  3326,  2083,  4125,  6004,  6005,  4124
  4808,  1002,  1571,  1570,  1001,   957,  1409,  1410,   958,  3757,  3760,
        3759,  2129,  3326,  3327,  3324,  2084,  4124,  6005,  6006,  4123
  4809,  1001,  1570,  1569,  1000,   958,  1410,  1411,   959,  3759,  3762,
        3761,  2128,  3324,  3325,  3323,  2085,  4123,  6006,  6007,  4122
*ELEMENT, TYPE=C3D15, ELSET=Eall
  4810,  1000,  1569,   999,   959,  1411,   960,  3761,  3763,  2127,
        3323,  3321,  2086,  4122,  6007,  4121
*ELEMENT, TYPE=C3D20, ELSET=Eall
  4811,   999,  1569,  1568,   998,   960,  1411,  1412,   961,  3763,  3765,
        3764,  2126,  3321,  3322,  3319,  2087,  4121,  6007,  6008,  4120
  4812,   998,  1568,  1567,   997,   961,  1412,  1413,   962,  3764,  3767,
        3766,  2125,  3319,  3320,  3317,  2088,  4120,  6008,  6009,  4119
  4813,   997,  1567,  1566,   996,   962,  1413,  1414,   963,  3766,  3769,
        3768,  2124,  3317,  3318,  3316,  2089,  4119,  6009,  6010,  4118
*ELEMENT, TYPE=C3D15, ELSET=Eall
  4814,   996,  1566,   995,   963,  1414,   964,  3768,  3770,  2123,
        3316,  3314,  2090,  4118,  6010,  4117
*ELEMENT, TYPE=C3D20, ELSET=Eall
  4815,   995,  1566,  1565,   994,   964,  1414,  1415,   965,  3770,  3772,
        3771,  2122,  3314,  3315,  3312,  2091,  4117,  6010,  6011,  4116
  4816,   994,  1565,  1564,   993,   965,  1415,  1416,   966,  3771,  3774,
        3773,  2121,  3312,  3313,  3311,  2092,  4116,  6011,  6012,  4115
*ELEMENT, TYPE=C3D15, ELSET=Eall
  4817,   993,  1564,   992,   966,  1416,   967,  3773,  3775,  2120,
        3311,  3309,  2093,  4115,  6012,  4114
*ELEMENT, TYPE=C3D20, ELSET=Eall
  4818,   992,  1564,  1563,   991,   967,  1416,  1417,   968,  3775,  3777,
        3776,  2119,  3309,  3310,  3307,  2094,  4114,  6012,  6013,  4113
  4819,   991,  1563,  1562,   990,   968,  1417,  1418,   969,  3776,  3779,
        3778,  2118,  3307,  3308,  3305,  2095,  4113,  6013,  6014,  4112
  4820,   990,  1562,  1561,   989,   969,  1418,  1419,   970,  3778,  3781,
        3780,  2117,  3305,  3306,  3304,  2096,  4112,  6014,  6015,  4111
*ELEMENT, TYPE=C3D15, ELSET=Eall
  4821,   989,  1561,   988,   970,  1419,   971,  3780,  3782,  2116,
        3304,  3302,  2097,  4111,  6015,  4110
*ELEMENT, TYPE=C3D20, ELSET=Eall
  4822,   988,  1561,  1560,   987,   971,  1419,  1420,   972,  3782,  3784,
        3783,  2115,  3302,  3303,  3300,  2098,  4110,  6015,  6016,  4109
  4823,   987,  1560,  1559,   986,   972,  1420,  1421,   973,  3783,  3786,
        3785,  2114,  3300,  3301,  3298,  2099,  4109,  6016,  6017,  4108
  4824,   986,  1559,  1558,   985,   973,  1421,  1422,   974,  3785,  3788,
        3787,  2113,  3298,  3299,  3297,  2100,  4108,  6017,  6018,  4107
*ELEMENT, TYPE=C3D15, ELSET=Eall
  4825,   985,  1558,   984,   974,  1422,   975,  3787,  3789,  2112,
        3297,  3295,  2101,  4107,  6018,  4106
*ELEMENT, TYPE=C3D20, ELSET=Eall
  4826,   984,  1558,  1557,   983,   975,  1422,  1423,   976,  3789,  3791,
        3790,  2111,  3295,  3296,  3293,  2102,  4106,  6018,  6019,  4105
  4827,   983,  1557,  1556,   982,   976,  1423,  1424,   977,  3790,  3793,
        3792,  2110,  3293,  3294,  3291,  2103,  4105,  6019,  6020,  4104
  4828,   982,  1556,  1555,   981,   977,  1424,  1425,   978,  3792,  3795,
        3794,  2109,  3291,  3292,  3290,  2104,  4104,  6020,  6021,  4103
*ELEMENT, TYPE=C3D15, ELSET=Eall
  4829,   981,  1555,   980,   978,  1425,   979,  3794,  3796,  2108,
        3290,  3288,  2105,  4103,  6021,  4102
*ELEMENT, TYPE=C3D20, ELSET=Eall
  4830,   980,  1555,   771,   613,   979,  1425,   760,   611,  3796,  3797,
        1891,  2107,  3288,  3289,  1877,  2106,  4102,  6021,  2774,  1892
  4831,   609,   768,  1598,   920,   607,   763,  1552,   877,  1887,  3799,
        3798,  2046,  1881,  3692,  3685,  2002,  1771,  2771,  6022,  3245
  4832,   768,   769,  1599,  1598,   763,   762,  1553,  1552,  1888,  3801,
        3800,  3799,  1880,  3693,  3687,  3692,  2771,  2772,  6023,  6022
  4833,   769,   770,  1600,  1599,   762,   761,  1554,  1553,  1889,  3803,
        3802,  3801,  1879,  3694,  3689,  3693,  2772,  2773,  6024,  6023
  4834,   770,   771,  1555,  1600,   761,   760,  1425,  1554,  1890,  3797,
        3804,  3803,  1878,  3289,  3691,  3694,  2773,  2774,  6021,  6024
  4835,   920,  1598,  1601,   919,   877,  1552,  1549,   876,  3798,  3806,
        3805,  2045,  3685,  3686,  3678,  2001,  3245,  6022,  6025,  3246
  4836,  1598,  1599,  1602,  1601,  1552,  1553,  1550,  1549,  3800,  3808,
        3807,  3806,  3687,  3688,  3680,  3686,  6022,  6023,  6026,  6025
  4837,  1599,  1600,  1603,  1602,  1553,  1554,  1551,  1550,  3802,  3810,
        3809,  3808,  3689,  3690,  3682,  3688,  6023,  6024,  6027,  6026
  4838,  1600,  1555,  1556,  1603,  1554,  1425,  1424,  1551,  3804,  3795,
        3811,  3810,  3691,  3292,  3684,  3690,  6024,  6021,  6020,  6027
  4839,   919,  1601,  1604,   918,   876,  1549,  1546,   875,  3805,  3813,
        3812,  2044,  3678,  3679,  3671,  2000,  3246,  6025,  6028,  3247
** ... 334 like lines cut
** Names based on slave1
*NSET,NSET=slave1 
607, 
608, 
611, 
612, 
615, 
616, 
617, 
618, 
619, 
620, 
621, 
622, 
623, 
624, 
625, 
626, 
627, 
628, 
629, 
630, 
** ... 1572 like lines cut
** Names based on master1
*NSET,NSET=master1 
3, 
79, 
80, 
81, 
82, 
83, 
84, 
85, 
86, 
87, 
88, 
89, 
90, 
91, 
92, 
93, 
94, 
95, 
96, 
97, 
** ... 431 like lines cut
** Names based on fix
*NSET,NSET=fix 
1, 
5, 
6, 
7, 
8, 
9, 
10, 
11, 
12, 
13, 
14, 
15, 
16, 
17, 
18, 
19, 
20, 
21, 
22, 
23, 
** ... 431 like lines cut
** Names based on Solid_2
*ELSET,ELSET=Solid_2 
1355, 
1356, 
1357, 
1358, 
1359, 
1360, 
1361, 
1362, 
1363, 
1364, 
1365, 
1366, 
1367, 
1368, 
1369, 
1370, 
1371, 
1372, 
1373, 
1374, 
** ... 768 like lines cut
** Names based on disp-uy
*NSET,NSET=disp-uy 
4, 
116, 
117, 
118, 
119, 
120, 
121, 
122, 
123, 
124, 
125, 
126, 
127, 
128, 
129, 
130, 
131, 
132, 
133, 
134, 
** ... 655 like lines cut
** Names based on Solid_1
*ELSET,ELSET=Solid_1 
4535, 
4536, 
4537, 
4538, 
4539, 
4540, 
4541, 
4542, 
4543, 
4544, 
4545, 
4546, 
4547, 
4548, 
4549, 
4550, 
4551, 
4552, 
4553, 
4554, 
** ... 216 like lines cut
** Names based on Solid_4
*ELSET,ELSET=Solid_4 
4771, 
4772, 
4773, 
4774, 
4775, 
4776, 
4777, 
4778, 
4779, 
4780, 
4781, 
4782, 
4783, 
4784, 
4785, 
4786, 
4787, 
4788, 
4789, 
4790, 
** ... 216 like lines cut
** Names based on C3D15
*ELSET,ELSET=C3D15 
4536, 
4540, 
4544, 
4548, 
4551, 
4555, 
4559, 
4563, 
4566, 
4570, 
4574, 
4578, 
4581, 
4585, 
4589, 
4593, 
4772, 
4776, 
4780, 
4784, 
** ... 12 like lines cut
** Names based on master2
*NSET,NSET=master2 
609, 
610, 
613, 
614, 
658, 
659, 
660, 
661, 
662, 
663, 
664, 
665, 
666, 
667, 
668, 
669, 
670, 
671, 
672, 
673, 
** ... 1572 like lines cut
** Names based on C3D20
*ELSET,ELSET=C3D20 
4535, 
4537, 
4538, 
4539, 
4541, 
4542, 
4543, 
4545, 
4546, 
4547, 
4549, 
4550, 
4552, 
4553, 
4554, 
4556, 
4557, 
4558, 
4560, 
4561, 
** ... 420 like lines cut
** Names based on Solid_3
*ELSET,ELSET=Solid_3 
1392, 
1395, 
1464, 
1466, 
1494, 
1583, 
1590, 
1618, 
1708, 
1782, 
1787, 
1829, 
1847, 
1887, 
1903, 
1982, 
1986, 
2008, 
2013, 
2068, 
** ... 770 like lines cut
** Names based on slave2
*NSET,NSET=slave2 
2, 
42, 
43, 
44, 
45, 
46, 
47, 
48, 
49, 
50, 
51, 
52, 
53, 
54, 
55, 
56, 
57, 
58, 
59, 
60, 
** ... 655 like lines cut
** Names based on C3D10
*ELSET,ELSET=C3D10 
1355, 
1356, 
1357, 
1358, 
1359, 
1360, 
1361, 
1362, 
1363, 
1364, 
1365, 
1366, 
1367, 
1368, 
1369, 
1370, 
1371, 
1372, 
1373, 
1374, 
** ... 1558 like lines cut
** Surfaces based on slave1
*SURFACE, NAME=slave1
4767, S2
4831, S2
4595, S2
5003, S2
4535, S2
4830, S2
4594, S2
4771, S2
4763, S2
4759, S2
4755, S2
4751, S2
4747, S2
4743, S2
4739, S2
4735, S2
4731, S2
4727, S2
4723, S2
4719, S2
** ... 452 like lines cut
** Surfaces based on fix
*SURFACE, NAME=fix
1767, S3
1852, S2
1992, S2
1845, S2
1832, S3
1705, S4
1828, S4
1436, S3
2061, S1
1421, S1
1406, S3
1611, S1
1885, S4
2059, S4
1691, S1
2078, S1
1455, S1
1487, S1
1509, S1
1376, S2
** ... 186 like lines cut
** Surfaces based on C3D10
*SURFACE, NAME=C3D10
** Surfaces based on Solid_1
*SURFACE, NAME=Solid_1
** Surfaces based on Solid_4
*SURFACE, NAME=Solid_4
** Surfaces based on master1
*SURFACE, NAME=master1
2577, S4
2516, S4
2795, S1
2439, S4
2578, S1
2273, S2
2164, S3
2196, S3
2642, S3
2631, S2
2860, S2
2418, S2
2862, S2
2830, S2
2204, S3
2817, S2
2176, S3
2865, S2
2318, S3
2421, S1
** ... 186 like lines cut
** Surfaces based on C3D20
*SURFACE, NAME=C3D20
** Surfaces based on Solid_2
*SURFACE, NAME=Solid_2
** Surfaces based on all
*SURFACE, NAME=all
1377, S4
1980, S4
1767, S4
1767, S3
1852, S2
1992, S2
1692, S1
1565, S4
1692, S3
1547, S4
2819, S4
2257, S1
2577, S1
2577, S4
2516, S4
2795, S1
2722, S1
2721, S1
2722, S3
2827, S1
** ... 2332 like lines cut
** Surfaces based on disp-uy
*SURFACE, NAME=disp-uy
2721, S1
2722, S3
2827, S1
2630, S3
2576, S2
2167, S2
2491, S2
2500, S3
2662, S4
2793, S2
2401, S2
2253, S3
2584, S4
2503, S3
2641, S4
2484, S2
2863, S4
2457, S2
2601, S4
2513, S3
** ... 298 like lines cut
** Surfaces based on master2
*SURFACE, NAME=master2
4767, S1
4831, S1
4595, S1
5003, S1
4535, S1
4830, S1
4594, S1
4771, S1
4763, S1
4759, S1
4755, S1
4751, S1
4747, S1
4743, S1
4739, S1
4735, S1
4731, S1
4727, S1
4723, S1
4719, S1
** ... 452 like lines cut
** Surfaces based on Solid_3
*SURFACE, NAME=Solid_3
** Surfaces based on slave2
*SURFACE, NAME=slave2
1565, S4
1692, S3
1547, S4
2058, S2
1567, S4
1748, S2
1990, S3
1746, S2
1429, S3
1519, S2
1612, S2
1610, S2
2056, S2
1586, S3
1620, S1
1651, S4
1883, S1
1824, S2
1522, S2
1432, S2
** ... 298 like lines cut
** Surfaces based on C3D15
*SURFACE, NAME=C3D15

*MATERIAL,NAME=steel
*ELASTIC
2.9000E+07,0.28


*DENSITY
7.3500E-04
*EXPANSION
7.2280E-06

*SOLID SECTION,MATERIAL=steel,ELSET=Eall

*BOUNDARY
fix,1,1,0
fix,2,2,0
fix,3,3,0

*BOUNDARY
disp-uy,1,1,0
disp-uy,2,2,-0.038
disp-uy,3,3,0

*CONTACT PAIR,INTERACTION=SI1,TYPE=SURFACE TO SURFACE,ADJUST=0
slave1,master1
*SURFACE INTERACTION,NAME=SI1
*SURFACE BEHAVIOR,PRESSURE-OVERCLOSURE=Linear
1450000000,0

*CONTACT PAIR,INTERACTION=SI2,TYPE=SURFACE TO SURFACE,ADJUST=0
slave2,master2
*SURFACE INTERACTION,NAME=SI2
*SURFACE BEHAVIOR,PRESSURE-OVERCLOSURE=Linear
1450000000,0


*TIME POINTS,NAME=T1,GENERATE
0,1,1.0000E-01

*STEP,NLGEOM,INC=1000
*STATIC
0.1,1
  *NODE FILE ,TIME POINTS=T1
U,
  *EL FILE,TIME POINTS=T1
S,
*NODE PRINT,NSET=fix,TIME POINTS=T1
RF
*NODE PRINT,NSET=disp-uy,TIME POINTS=T1
RF
*CONTACT OUTPUT
CDIS,CSTR 
*END STEP
