**Contact of moving bodies 
** CCX *AMPLITUDE card is used to simulate motion
**<img src="movecont.jpg">

*NODE, NSET=Nall
       1,2.500000000000e-02,7.500000000000e-02,0.000000000000e+00
       2,-2.500000000000e-02,7.500000000000e-02,0.000000000000e+00
       3,2.500000000000e-02,7.500000000000e-02,1.000000000000e-02
       4,-2.500000000000e-02,7.500000000000e-02,1.000000000000e-02
       5,-2.500000000000e-02,2.500000000000e-02,0.000000000000e+00
       6,2.500000000000e-02,2.500000000000e-02,0.000000000000e+00
       7,2.500000000000e-02,2.500000000000e-02,1.000000000000e-02
       8,-2.500000000000e-02,2.500000000000e-02,1.000000000000e-02
       9,-4.000000000000e-02,-6.000000000000e-02,1.000000000000e-02
      10,-4.000000000000e-02,-6.000000000000e-02,0.000000000000e+00
      11,-4.000000000000e-02,0.000000000000e+00,1.000000000000e-02
      12,-4.000000000000e-02,0.000000000000e+00,0.000000000000e+00
      13,4.000000000000e-02,-6.000000000000e-02,1.000000000000e-02
      14,4.000000000000e-02,-6.000000000000e-02,0.000000000000e+00
      15,4.000000000000e-02,0.000000000000e+00,1.000000000000e-02
      16,4.000000000000e-02,0.000000000000e+00,0.000000000000e+00
      17,2.185750000000e-02,2.284535000000e-02,5.000000000000e-03
      18,1.489111000000e-02,1.538933000000e-02,5.000000000000e-03
      19,5.278510000000e-03,1.125154000000e-02,5.000000000000e-03
      20,-5.278510000000e-03,1.125154000000e-02,5.000000000000e-03
** ... 17109 like lines cut
*ELEMENT, TYPE=C3D20, ELSET=Eall
  2743,     8,   168,   772,   184,   212,  1045,  2442,  1138,  4771,  5808,
        5807,  4788,  6427,  9370,  9369,  6634,  4818,  6460,  9371,  6660
  2744,   212,  1045,  2442,  1138,   211,  1029,  2443,  1112,  6427,  9370,
        9369,  6634,  6394,  9373,  9372,  6581,  4817,  6428,  9374,  6633
  2745,   211,  1029,  2443,  1112,   210,  1013,  2444,  1086,  6394,  9373,
        9372,  6581,  6361,  9376,  9375,  6528,  4816,  6395,  9377,  6580
  2746,   210,  1013,  2444,  1086,     5,    91,   453,   107,  6361,  9376,
        9375,  6528,  4689,  5180,  5178,  4706,  4815,  6362,  9378,  6527
  2747,   184,   772,   771,   185,  1138,  2442,  2439,  1137,  5807,  5810,
        5809,  4789,  9369,  9380,  9379,  6632,  6660,  9371,  9381,  6659
  2748,  1138,  2442,  2439,  1137,  1112,  2443,  2440,  1111,  9369,  9380,
        9379,  6632,  9372,  9383,  9382,  6579,  6633,  9374,  9384,  6631
  2749,  1112,  2443,  2440,  1111,  1086,  2444,  2441,  1085,  9372,  9383,
        9382,  6579,  9375,  9386,  9385,  6526,  6580,  9377,  9387,  6578
  2750,  1086,  2444,  2441,  1085,   107,   453,   454,   108,  9375,  9386,
        9385,  6526,  5178,  5179,  5176,  4707,  6527,  9378,  9388,  6525
  2751,   185,   771,   770,   186,  1137,  2439,  2436,  1136,  5809,  5812,
        5811,  4790,  9379,  9390,  9389,  6630,  6659,  9381,  9391,  6658
  2752,  1137,  2439,  2436,  1136,  1111,  2440,  2437,  1110,  9379,  9390,
        9389,  6630,  9382,  9393,  9392,  6577,  6631,  9384,  9394,  6629
** ... 4 like lines cut
*ELEMENT, TYPE=C3D15, ELSET=Eall
  2755,   186,   770,   187,  1136,  2436,  1135,  5811,  5813,  4791,
        9389,  9399,  6628,  6658,  9391,  6657
  2756,  1136,  2436,  1135,  1110,  2437,  1109,  9389,  9399,  6628,
        9392,  9400,  6575,  6629,  9394,  6627
  2757,  1110,  2437,  1109,  1084,  2438,  1083,  9392,  9400,  6575,
        9395,  9401,  6522,  6576,  9397,  6574
  2758,  1084,  2438,  1083,   109,   455,   110,  9395,  9401,  6522,
        5175,  5173,  4709,  6523,  9398,  6521
*ELEMENT, TYPE=C3D20, ELSET=Eall
  2759,   187,   770,   769,   188,  1135,  2436,  2433,  1134,  5813,  5815,
        5814,  4792,  9399,  9403,  9402,  6626,  6657,  9391,  9404,  6656
  2760,  1135,  2436,  2433,  1134,  1109,  2437,  2434,  1108,  9399,  9403,
        9402,  6626,  9400,  9406,  9405,  6573,  6627,  9394,  9407,  6625
  2761,  1109,  2437,  2434,  1108,  1083,  2438,  2435,  1082,  9400,  9406,
        9405,  6573,  9401,  9409,  9408,  6520,  6574,  9397,  9410,  6572
  2762,  1083,  2438,  2435,  1082,   110,   455,   456,   111,  9401,  9409,
        9408,  6520,  5173,  5174,  5172,  4710,  6521,  9398,  9411,  6519
*ELEMENT, TYPE=C3D15, ELSET=Eall
  2763,   188,   769,   189,  1134,  2433,  1133,  5814,  5816,  4793,
        9402,  9412,  6624,  6656,  9404,  6655
  2764,  1134,  2433,  1133,  1108,  2434,  1107,  9402,  9412,  6624,
        9405,  9413,  6571,  6625,  9407,  6623
  2765,  1108,  2434,  1107,  1082,  2435,  1081,  9405,  9413,  6571,
        9408,  9414,  6518,  6572,  9410,  6570
  2766,  1082,  2435,  1081,   111,   456,   112,  9408,  9414,  6518,
        5172,  5170,  4711,  6519,  9411,  6517
*ELEMENT, TYPE=C3D20, ELSET=Eall
  2767,   189,   769,   768,   190,  1133,  2433,  2430,  1132,  5816,  5818,
        5817,  4794,  9412,  9416,  9415,  6622,  6655,  9404,  9417,  6654
  2768,  1133,  2433,  2430,  1132,  1107,  2434,  2431,  1106,  9412,  9416,
        9415,  6622,  9413,  9419,  9418,  6569,  6623,  9407,  9420,  6621
  2769,  1107,  2434,  2431,  1106,  1081,  2435,  2432,  1080,  9413,  9419,
        9418,  6569,  9414,  9422,  9421,  6516,  6570,  9410,  9423,  6568
  2770,  1081,  2435,  2432,  1080,   112,   456,   457,   113,  9414,  9422,
        9421,  6516,  5170,  5171,  5169,  4712,  6517,  9411,  9424,  6515
*ELEMENT, TYPE=C3D15, ELSET=Eall
  2771,   190,   768,   191,  1132,  2430,  1131,  5817,  5819,  4795,
        9415,  9425,  6620,  6654,  9417,  6653
  2772,  1132,  2430,  1131,  1106,  2431,  1105,  9415,  9425,  6620,
        9418,  9426,  6567,  6621,  9420,  6619
  2773,  1106,  2431,  1105,  1080,  2432,  1079,  9418,  9426,  6567,
        9421,  9427,  6514,  6568,  9423,  6566
  2774,  1080,  2432,  1079,   113,   457,   114,  9421,  9427,  6514,
        5169,  5167,  4713,  6515,  9424,  6513
*ELEMENT, TYPE=C3D20, ELSET=Eall
  2775,   191,   768,   767,   192,  1131,  2430,  2427,  1130,  5819,  5821,
        5820,  4796,  9425,  9429,  9428,  6618,  6653,  9417,  9430,  6652
  2776,  1131,  2430,  2427,  1130,  1105,  2431,  2428,  1104,  9425,  9429,
        9428,  6618,  9426,  9432,  9431,  6565,  6619,  9420,  9433,  6617
  2777,  1105,  2431,  2428,  1104,  1079,  2432,  2429,  1078,  9426,  9432,
        9431,  6565,  9427,  9435,  9434,  6512,  6566,  9423,  9436,  6564
  2778,  1079,  2432,  2429,  1078,   114,   457,   458,   115,  9427,  9435,
        9434,  6512,  5167,  5168,  5165,  4714,  6513,  9424,  9437,  6511
  2779,   192,   767,   766,   193,  1130,  2427,  2424,  1129,  5820,  5823,
        5822,  4797,  9428,  9439,  9438,  6616,  6652,  9430,  9440,  6651
  2780,  1130,  2427,  2424,  1129,  1104,  2428,  2425,  1103,  9428,  9439,
        9438,  6616,  9431,  9442,  9441,  6563,  6617,  9433,  9443,  6615
  2781,  1104,  2428,  2425,  1103,  1078,  2429,  2426,  1077,  9431,  9442,
        9441,  6563,  9434,  9445,  9444,  6510,  6564,  9436,  9446,  6562
  2782,  1078,  2429,  2426,  1077,   115,   458,   459,   116,  9434,  9445,
        9444,  6510,  5165,  5166,  5164,  4715,  6511,  9437,  9447,  6509
*ELEMENT, TYPE=C3D15, ELSET=Eall
  2783,   193,   766,   194,  1129,  2424,  1128,  5822,  5824,  4798,
        9438,  9448,  6614,  6651,  9440,  6650
  2784,  1129,  2424,  1128,  1103,  2425,  1102,  9438,  9448,  6614,
        9441,  9449,  6561,  6615,  9443,  6613
  2785,  1103,  2425,  1102,  1077,  2426,  1076,  9441,  9449,  6561,
        9444,  9450,  6508,  6562,  9446,  6560
  2786,  1077,  2426,  1076,   116,   459,   117,  9444,  9450,  6508,
        5164,  5162,  4716,  6509,  9447,  6507
*ELEMENT, TYPE=C3D20, ELSET=Eall
  2787,   194,   766,   765,   195,  1128,  2424,  2421,  1127,  5824,  5826,
        5825,  4799,  9448,  9452,  9451,  6612,  6650,  9440,  9453,  6649
  2788,  1128,  2424,  2421,  1127,  1102,  2425,  2422,  1101,  9448,  9452,
        9451,  6612,  9449,  9455,  9454,  6559,  6613,  9443,  9456,  6611
  2789,  1102,  2425,  2422,  1101,  1076,  2426,  2423,  1075,  9449,  9455,
        9454,  6559,  9450,  9458,  9457,  6506,  6560,  9446,  9459,  6558
  2790,  1076,  2426,  2423,  1075,   117,   459,   460,   118,  9450,  9458,
        9457,  6506,  5162,  5163,  5161,  4717,  6507,  9447,  9460,  6505
*ELEMENT, TYPE=C3D15, ELSET=Eall
  2791,   195,   765,   196,  1127,  2421,  1126,  5825,  5827,  4800,
        9451,  9461,  6610,  6649,  9453,  6648
  2792,  1127,  2421,  1126,  1101,  2422,  1100,  9451,  9461,  6610,
        9454,  9462,  6557,  6611,  9456,  6609
  2793,  1101,  2422,  1100,  1075,  2423,  1074,  9454,  9462,  6557,
        9457,  9463,  6504,  6558,  9459,  6556
  2794,  1075,  2423,  1074,   118,   460,   119,  9457,  9463,  6504,
        5161,  5159,  4718,  6505,  9460,  6503
*ELEMENT, TYPE=C3D20, ELSET=Eall
  2795,   196,   765,   764,   197,  1126,  2421,  2418,  1125,  5827,  5829,
        5828,  4801,  9461,  9465,  9464,  6608,  6648,  9453,  9466,  6647
  2796,  1126,  2421,  2418,  1125,  1100,  2422,  2419,  1099,  9461,  9465,
        9464,  6608,  9462,  9468,  9467,  6555,  6609,  9456,  9469,  6607
  2797,  1100,  2422,  2419,  1099,  1074,  2423,  2420,  1073,  9462,  9468,
        9467,  6555,  9463,  9471,  9470,  6502,  6556,  9459,  9472,  6554
  2798,  1074,  2423,  2420,  1073,   119,   460,   461,   120,  9463,  9471,
        9470,  6502,  5159,  5160,  5158,  4719,  6503,  9460,  9473,  6501
*ELEMENT, TYPE=C3D15, ELSET=Eall
  2799,   197,   764,   198,  1125,  2418,  1124,  5828,  5830,  4802,
        9464,  9474,  6606,  6647,  9466,  6646
  2800,  1125,  2418,  1124,  1099,  2419,  1098,  9464,  9474,  6606,
        9467,  9475,  6553,  6607,  9469,  6605
  2801,  1099,  2419,  1098,  1073,  2420,  1072,  9467,  9475,  6553,
        9470,  9476,  6500,  6554,  9472,  6552
  2802,  1073,  2420,  1072,   120,   461,   121,  9470,  9476,  6500,
        5158,  5156,  4720,  6501,  9473,  6499
*ELEMENT, TYPE=C3D20, ELSET=Eall
  2803,   198,   764,   763,   199,  1124,  2418,  2415,  1123,  5830,  5832,
        5831,  4803,  9474,  9478,  9477,  6604,  6646,  9466,  9479,  6645
  2804,  1124,  2418,  2415,  1123,  1098,  2419,  2416,  1097,  9474,  9478,
        9477,  6604,  9475,  9481,  9480,  6551,  6605,  9469,  9482,  6603
  2805,  1098,  2419,  2416,  1097,  1072,  2420,  2417,  1071,  9475,  9481,
        9480,  6551,  9476,  9484,  9483,  6498,  6552,  9472,  9485,  6550
  2806,  1072,  2420,  2417,  1071,   121,   461,   462,   122,  9476,  9484,
        9483,  6498,  5156,  5157,  5155,  4721,  6499,  9473,  9486,  6497
*ELEMENT, TYPE=C3D15, ELSET=Eall
  2807,   199,   763,   200,  1123,  2415,  1122,  5831,  5833,  4804,
        9477,  9487,  6602,  6645,  9479,  6644
  2808,  1123,  2415,  1122,  1097,  2416,  1096,  9477,  9487,  6602,
        9480,  9488,  6549,  6603,  9482,  6601
  2809,  1097,  2416,  1096,  1071,  2417,  1070,  9480,  9488,  6549,
        9483,  9489,  6496,  6550,  9485,  6548
  2810,  1071,  2417,  1070,   122,   462,   123,  9483,  9489,  6496,
        5155,  5153,  4722,  6497,  9486,  6495
*ELEMENT, TYPE=C3D20, ELSET=Eall
  2811,   200,   763,   762,   201,  1122,  2415,  2412,  1121,  5833,  5835,
        5834,  4805,  9487,  9491,  9490,  6600,  6644,  9479,  9492,  6643
  2812,  1122,  2415,  2412,  1121,  1096,  2416,  2413,  1095,  9487,  9491,
        9490,  6600,  9488,  9494,  9493,  6547,  6601,  9482,  9495,  6599
  2813,  1096,  2416,  2413,  1095,  1070,  2417,  2414,  1069,  9488,  9494,
        9493,  6547,  9489,  9497,  9496,  6494,  6548,  9485,  9498,  6546
  2814,  1070,  2417,  2414,  1069,   123,   462,   463,   124,  9489,  9497,
        9496,  6494,  5153,  5154,  5151,  4723,  6495,  9486,  9499,  6493
  2815,   201,   762,   761,   202,  1121,  2412,  2409,  1120,  5834,  5837,
        5836,  4806,  9490,  9501,  9500,  6598,  6643,  9492,  9502,  6642
  2816,  1121,  2412,  2409,  1120,  1095,  2413,  2410,  1094,  9490,  9501,
        9500,  6598,  9493,  9504,  9503,  6545,  6599,  9495,  9505,  6597
  2817,  1095,  2413,  2410,  1094,  1069,  2414,  2411,  1068,  9493,  9504,
        9503,  6545,  9496,  9507,  9506,  6492,  6546,  9498,  9508,  6544
  2818,  1069,  2414,  2411,  1068,   124,   463,   464,   125,  9496,  9507,
        9506,  6492,  5151,  5152,  5150,  4724,  6493,  9499,  9509,  6491
*ELEMENT, TYPE=C3D15, ELSET=Eall
  2819,   202,   761,   203,  1120,  2409,  1119,  5836,  5838,  4807,
        9500,  9510,  6596,  6642,  9502,  6641
  2820,  1120,  2409,  1119,  1094,  2410,  1093,  9500,  9510,  6596,
        9503,  9511,  6543,  6597,  9505,  6595
  2821,  1094,  2410,  1093,  1068,  2411,  1067,  9503,  9511,  6543,
        9506,  9512,  6490,  6544,  9508,  6542
  2822,  1068,  2411,  1067,   125,   464,   126,  9506,  9512,  6490,
        5150,  5148,  4725,  6491,  9509,  6489
*ELEMENT, TYPE=C3D20, ELSET=Eall
  2823,   203,   761,   760,   204,  1119,  2409,  2406,  1118,  5838,  5840,
        5839,  4808,  9510,  9514,  9513,  6594,  6641,  9502,  9515,  6640
  2824,  1119,  2409,  2406,  1118,  1093,  2410,  2407,  1092,  9510,  9514,
        9513,  6594,  9511,  9517,  9516,  6541,  6595,  9505,  9518,  6593
  2825,  1093,  2410,  2407,  1092,  1067,  2411,  2408,  1066,  9511,  9517,
        9516,  6541,  9512,  9520,  9519,  6488,  6542,  9508,  9521,  6540
  2826,  1067,  2411,  2408,  1066,   126,   464,   465,   127,  9512,  9520,
        9519,  6488,  5148,  5149,  5147,  4726,  6489,  9509,  9522,  6487
*ELEMENT, TYPE=C3D15, ELSET=Eall
  2827,   204,   760,   205,  1118,  2406,  1117,  5839,  5841,  4809,
        9513,  9523,  6592,  6640,  9515,  6639
  2828,  1118,  2406,  1117,  1092,  2407,  1091,  9513,  9523,  6592,
        9516,  9524,  6539,  6593,  9518,  6591
  2829,  1092,  2407,  1091,  1066,  2408,  1065,  9516,  9524,  6539,
        9519,  9525,  6486,  6540,  9521,  6538
  2830,  1066,  2408,  1065,   127,   465,   128,  9519,  9525,  6486,
        5147,  5145,  4727,  6487,  9522,  6485
*ELEMENT, TYPE=C3D20, ELSET=Eall
  2831,   205,   760,   759,   206,  1117,  2406,  2403,  1116,  5841,  5843,
        5842,  4810,  9523,  9527,  9526,  6590,  6639,  9515,  9528,  6638
  2832,  1117,  2406,  2403,  1116,  1091,  2407,  2404,  1090,  9523,  9527,
        9526,  6590,  9524,  9530,  9529,  6537,  6591,  9518,  9531,  6589
  2833,  1091,  2407,  2404,  1090,  1065,  2408,  2405,  1064,  9524,  9530,
        9529,  6537,  9525,  9533,  9532,  6484,  6538,  9521,  9534,  6536
  2834,  1065,  2408,  2405,  1064,   128,   465,   466,   129,  9525,  9533,
        9532,  6484,  5145,  5146,  5144,  4728,  6485,  9522,  9535,  6483
*ELEMENT, TYPE=C3D15, ELSET=Eall
  2835,   206,   759,   207,  1116,  2403,  1115,  5842,  5844,  4811,
        9526,  9536,  6588,  6638,  9528,  6637
  2836,  1116,  2403,  1115,  1090,  2404,  1089,  9526,  9536,  6588,
        9529,  9537,  6535,  6589,  9531,  6587
  2837,  1090,  2404,  1089,  1064,  2405,  1063,  9529,  9537,  6535,
        9532,  9538,  6482,  6536,  9534,  6534
  2838,  1064,  2405,  1063,   129,   466,   130,  9532,  9538,  6482,
        5144,  5142,  4729,  6483,  9535,  6481
*ELEMENT, TYPE=C3D20, ELSET=Eall
  2839,   207,   759,   758,   208,  1115,  2403,  2400,  1114,  5844,  5846,
        5845,  4812,  9536,  9540,  9539,  6586,  6637,  9528,  9541,  6636
  2840,  1115,  2403,  2400,  1114,  1089,  2404,  2401,  1088,  9536,  9540,
        9539,  6586,  9537,  9543,  9542,  6533,  6587,  9531,  9544,  6585
  2841,  1089,  2404,  2401,  1088,  1063,  2405,  2402,  1062,  9537,  9543,
        9542,  6533,  9538,  9546,  9545,  6480,  6534,  9534,  9547,  6532
  2842,  1063,  2405,  2402,  1062,   130,   466,   467,   131,  9538,  9546,
        9545,  6480,  5142,  5143,  5140,  4730,  6481,  9535,  9548,  6479
  2843,   208,   758,   757,   209,  1114,  2400,  2397,  1113,  5845,  5848,
        5847,  4813,  9539,  9550,  9549,  6584,  6636,  9541,  9551,  6635
  2844,  1114,  2400,  2397,  1113,  1088,  2401,  2398,  1087,  9539,  9550,
        9549,  6584,  9542,  9553,  9552,  6531,  6585,  9544,  9554,  6583
  2845,  1088,  2401,  2398,  1087,  1062,  2402,  2399,  1061,  9542,  9553,
        9552,  6531,  9545,  9556,  9555,  6478,  6532,  9547,  9557,  6530
  2846,  1062,  2402,  2399,  1061,   131,   467,   468,   132,  9545,  9556,
        9555,  6478,  5140,  5141,  5138,  4731,  6479,  9548,  9558,  6477
  2847,   209,   757,   152,     7,  1113,  2397,   709,   151,  5847,  5849,
        4754,  4814,  9549,  9559,  5692,  6582,  6635,  9551,  5693,  4753
  2848,  1113,  2397,   709,   151,  1087,  2398,   725,   150,  9549,  9559,
        5692,  6582,  9552,  9560,  5725,  6529,  6583,  9554,  5726,  4752
** ... 6500 like lines cut
** Names based on slave1
*NSET,NSET=slave1 
11, 
12, 
15, 
16, 
235, 
236, 
237, 
279, 
280, 
281, 
353, 
354, 
355, 
356, 
357, 
358, 
359, 
360, 
361, 
362, 
** ... 367 like lines cut
** Names based on uyuzfix
*NSET,NSET=uyuzfix 
9, 
10, 
13, 
14, 
213, 
214, 
215, 
257, 
258, 
259, 
301, 
302, 
303, 
304, 
305, 
306, 
307, 
308, 
309, 
310, 
** ... 367 like lines cut
** Names based on master1
*NSET,NSET=master1 
5, 
6, 
7, 
8, 
107, 
108, 
109, 
110, 
111, 
112, 
113, 
114, 
115, 
116, 
117, 
118, 
119, 
120, 
121, 
122, 
** ... 367 like lines cut
** Names based on Solid_2
*ELSET,ELSET=Solid_2 
2743, 
2744, 
2745, 
2746, 
2747, 
2748, 
2749, 
2750, 
2751, 
2752, 
2753, 
2754, 
2755, 
2756, 
2757, 
2758, 
2759, 
2760, 
2761, 
2762, 
** ... 1176 like lines cut
** Names based on Solid_1
*ELSET,ELSET=Solid_1 
3939, 
3940, 
3941, 
3942, 
3943, 
3944, 
3945, 
3946, 
3947, 
3948, 
3949, 
3950, 
3951, 
3952, 
3953, 
3954, 
3955, 
3956, 
3957, 
3958, 
** ... 2140 like lines cut
** Names based on C3D15
*ELSET,ELSET=C3D15 
2755, 
2756, 
2757, 
2758, 
2763, 
2764, 
2765, 
2766, 
2771, 
2772, 
2773, 
2774, 
2783, 
2784, 
2785, 
2786, 
2791, 
2792, 
2793, 
2794, 
** ... 20 like lines cut
** Names based on moveuyux
*NSET,NSET=moveuyux 
1, 
2, 
3, 
4, 
53, 
54, 
55, 
56, 
57, 
58, 
59, 
60, 
61, 
62, 
63, 
64, 
65, 
66, 
67, 
68, 
** ... 227 like lines cut
** Names based on C3D20
*ELSET,ELSET=C3D20 
2743, 
2744, 
2745, 
2746, 
2747, 
2748, 
2749, 
2750, 
2751, 
2752, 
2753, 
2754, 
2759, 
2760, 
2761, 
2762, 
2767, 
2768, 
2769, 
2770, 
** ... 3296 like lines cut
** Names based on uxfix
*NSET,NSET=uxfix 
9, 
10, 
11, 
12, 
13, 
14, 
15, 
16, 
213, 
214, 
215, 
216, 
217, 
218, 
219, 
220, 
221, 
222, 
223, 
224, 
** ... 558 like lines cut
** Surfaces based on slave1
*SURFACE, NAME=slave1
4452, S5
6072, S5
4478, S5
6098, S5
5532, S5
4992, S5
5558, S5
5018, S5
6073, S5
6074, S5
6075, S5
6076, S5
6077, S5
6078, S5
6079, S5
6080, S5
6081, S5
6082, S5
6083, S5
6084, S5
** ... 88 like lines cut
** Surfaces based on Solid_1
*SURFACE, NAME=Solid_1
** Surfaces based on master1
*SURFACE, NAME=master1
2746, S6
2850, S6
2847, S6
2743, S6
2750, S6
2754, S6
2758, S5
2762, S6
2766, S5
2770, S6
2774, S5
2778, S6
2782, S6
2786, S5
2790, S6
2794, S5
2798, S6
2802, S5
2806, S6
2810, S5
** ... 88 like lines cut
** Surfaces based on C3D20
*SURFACE, NAME=C3D20
** Surfaces based on uyuzfix
*SURFACE, NAME=uyuzfix
3939, S3
5559, S3
3965, S3
5585, S3
5019, S3
4479, S3
5045, S3
4505, S3
5560, S3
5561, S3
5562, S3
5563, S3
5564, S3
5565, S3
5566, S3
5567, S3
5568, S3
5569, S3
5570, S3
5571, S3
** ... 88 like lines cut
** Surfaces based on uxfix
*SURFACE, NAME=uxfix
3939, S1
5559, S1
4452, S1
6072, S1
3965, S2
5585, S2
4478, S2
6098, S2
5019, S1
4479, S1
3966, S1
3993, S1
4020, S1
4047, S1
4074, S1
4101, S1
4128, S1
4155, S1
4182, S1
4209, S1
** ... 140 like lines cut
** Surfaces based on Solid_2
*SURFACE, NAME=Solid_2
** Surfaces based on all
*SURFACE, NAME=all
2854, S6
2854, S2
2854, S3
3878, S6
3878, S2
3878, S5
2851, S6
2851, S3
2851, S1
3875, S6
3875, S1
3875, S5
2746, S2
2746, S3
2746, S6
2850, S2
2850, S6
2850, S5
2847, S5
2847, S6
** ... 2346 like lines cut
** Surfaces based on moveuyux
*SURFACE, NAME=moveuyux
2854, S6
3878, S6
2851, S6
3875, S6
3814, S6
3750, S6
3686, S6
3622, S6
3558, S6
3494, S6
3430, S6
3366, S6
3302, S6
3238, S6
3174, S6
3110, S6
3046, S6
2982, S6
2918, S6
2853, S6
** ... 48 like lines cut
** Surfaces based on C3D15
*SURFACE, NAME=C3D15

*MATERIAL,NAME=steel
*ELASTIC
2.0000E+11,0.28


*DENSITY
7.8500E+03
*EXPANSION
1.3000E-05

*SOLID SECTION,MATERIAL=steel,ELSET=Eall

** default amplitude
*AMPLITUDE,NAME=Amp0
0,0,1,1

*AMPLITUDE,NAME=Graph1
0,0,
0.5,-0.001,
1,-0.001,

*AMPLITUDE,NAME=Graph2
0,0,
0.25,-0.015,
0.5,0.015,

*BOUNDARY
uyuzfix,2,2,0
uyuzfix,3,3,0

*BOUNDARY
uxfix,1,1,0

*CONTACT PAIR,INTERACTION=SI1,TYPE=SURFACE TO SURFACE,ADJUST=0
slave1,master1
*SURFACE INTERACTION,NAME=SI1
*SURFACE BEHAVIOR,PRESSURE-OVERCLOSURE=Linear
100000000000000,0

*FRICTION
0.2,1000000000000


*TIME POINTS,NAME=T1,GENERATE
0,1,5.0000E-02

*STEP,NLGEOM,INC=10000
*STATIC
0.05,1
*BOUNDARY,AMPLITUDE=graph1,TIME DELAY=0
moveuyux,2,2,1
moveuyux,3,3,0

*BOUNDARY,AMPLITUDE=graph2,TIME DELAY=0.5
moveuyux,1,1,1
moveuyux,3,3,0

  *NODE FILE ,TIME POINTS=T1
U,
  *EL FILE,TIME POINTS=T1
S,
*NODE PRINT,NSET=uyuzfix,TIME POINTS=T1
RF
*NODE PRINT,NSET=uxfix,TIME POINTS=T1
RF
*NODE PRINT,NSET=moveuyux,TIME POINTS=T1
RF
*NODE PRINT,NSET=moveuyux,TIME POINTS=T1
RF
*CONTACT OUTPUT
CDIS,CSTR 
*END STEP
