
*include, input=all.msh
**
**
** network
*include, input=NETWORK.nam
*include, input=NW_COMPR.nam
*include, input=NW_BOIL.nam
*include, input=NW_BC1.nam
*include, input=NW_BC2.nam
*include, input=NW_BC3.nam
*include, input=NW_BC4.nam
*include, input=NW_BC5.nam
*include, input=NW_FLAMTO1.nam
*include, input=NW_FLAMTO2.nam
*include, input=NW_FLAMTO3.nam
*include, input=NW_FLAMTO4.nam
*include, input=P_IN.nam
*include, input=P_LAVW.nam
*include, input=P_FLAMT1.nam
*include, input=P_FLAMT2.nam
*include, input=P_FLAMT3.nam
*include, input=P_FLAMT4.nam
***include, input=P_OUT.nam
**
** materials
*include, input=qu8c.nam
*include, input=tr6c.nam
*include, input=qu8s.nam
*include, input=C355.nam
*include, input=Al.nam
*include, input=IN713.nam
*include, input=CrNiSt.nam
*include, input=MgSt.nam
*include, input=LAV.nam
*include, input=LEV.nam
*include, input=LAT.nam
*include, input=LET.nam
**
** Compressor
*include, input= NUTE23.sur
*include, input= E23NUT.sur
*include, input= E23E17.sur
*include, input= E17E23.sur
*include, input= E23E013.sur
*include, input= E013E23.sur
*include, input= E17E013.sur
*include, input= E013E17.sur
*include, input= E22E013.sur
** COMPRESSOR BLADE DISK
*include, input= E23BE23V.sur
*include, input= E23VE23B.sur
** WEEL BALL BEARING
*include, input= E22E17.sur
*include, input= E17E22.sur
** BALL BEARING SOCKET
*include, input= E22E21.sur
*include, input= E21E22.sur
** SOCKET HOUSING Front
*include, input= E21E20F.sur 
*include, input= E20E21F.sur
** SOCKET HOUSING Rear
*include, input= E21E20R.sur 
*include, input= E20E21R.sur
** HOUSING BEARING_CASING
*include, input= E16E20.sur
*include, input= E20E16.sur
** BEARING_CASING COMPRESSOR SEAL
*include, input= E16E05.sur 
*include, input= E05E16.sur
** COMPRESSOR SEAL STATOR REAR
*include, input= E05E02.sur
*include, input= E02E05.sur
** VANE STATOR REAR
*include, input= E24E02.sur
*include, input= E02E24.sur
** VANE STATOR FRONT
*include, input= E24E01.sur 
*include, input= E01E24.sur
** STATOR REAR RING
*include, input= E03E02.sur
*include, input= E02E03.sur
** RING OILTIN
*include, input= E03E04.sur
*include, input= E04E03.sur
** OILTIN BC_SUPPORT
*include, input= E70E06.sur
*include, input= E06E70.sur
** BC_SUPPORT HEAT_SHIELD
*include, input= E06E11.sur
*include, input= E11E06.sur
** HEAT_SHIELD BEARING_CASING
*include, input= E015E11.sur
*include, input= E11E015.sur
** BEARING_CHAMBER
*include, input= E015E16.sur
*include, input= E16E015.sur
** BEARING_CASING SEALPLATE
*include, input= E015E14.sur 
*include, input= E14E015.sur
** BC_SUPPORT VANE
*include, input= LEE07.sur
*include, input= E07LE.sur
** BOILER inner borders
*include, input= S07E07.sur
*include, input= E07S07.sur
** BOILER inner borders
*include, input= E66E07.sur
*include, input= E07E66.sur
** BOILER FLANGE
*include, input= E66E09.sur
*include, input= E09E66.sur
** FLANGE CASING
*include, input= E09E69.sur
*include, input= E69E09.sur
** CASING BOILER
*include, input= E08E69.sur
*include, input= E69E08.sur
** BOILER FLAME_TUBE
*include, input= E08E63.sur
*include, input= E63E08.sur
** BOILER
*include, input= E08E66.sur
*include, input= E66E08.sur
** FLAME_TUBE RING
*include, input= E71E63.sur
*include, input= E63E71.sur
** FLAME_TUBE inner borders
*include, input= E63S63.sur
*include, input= S63E63.sur
** CASING STATOR FRONT
*include, input= E01E69.sur
*include, input= E69E01.sur
** PISTONRING STATOR REAR
*include, input= PR1E05.sur
*include, input= E05PR1.sur
** PISTONRING SEALPLATE
*include, input= PR2E014.sur
*include, input= E014PR2.sur
** OILPLATE BALL BEARING
*include, input= OILPE22.sur
*include, input= E22OILP.sur
** OILPLATE WEEL
*include, input= OILPE17.sur
*include, input= E17OILP.sur
** TURBINE BLADE DISK
*include, input= E17BE17V.sur
*include, input= E17VE17B.sur
**
*CONTACT PAIR,INTERACTION=IN1,TYPE=SURFACE TO SURFACE
** Compressor
SNUTE23, SE23NUT
*SURFACE INTERACTION,NAME=IN1
*SURFACE BEHAVIOR,PRESSURE-OVERCLOSURE=TIED
1.E7
*GAP CONDUCTANCE
1.e2
*CONTACT PAIR,INTERACTION=IN2,TYPE=SURFACE TO SURFACE
SE23E17, SE17E23
*SURFACE INTERACTION,NAME=IN2
*SURFACE BEHAVIOR,PRESSURE-OVERCLOSURE=TIED
1.E7
*GAP CONDUCTANCE
1.e2
*CONTACT PAIR,INTERACTION=IN3,TYPE=SURFACE TO SURFACE
SE23E013, SE013E23
*SURFACE INTERACTION,NAME=IN3
*SURFACE BEHAVIOR,PRESSURE-OVERCLOSURE=TIED
1.E7
*GAP CONDUCTANCE
1.e2
*CONTACT PAIR,INTERACTION=IN1,TYPE=SURFACE TO SURFACE
** Compressor blade disk
SE23BE23V, SE23VE23B
*SURFACE INTERACTION,NAME=IN1
*SURFACE BEHAVIOR,PRESSURE-OVERCLOSURE=TIED
1.E7
*GAP CONDUCTANCE
1.e2
*CONTACT PAIR,INTERACTION=IN5,TYPE=SURFACE TO SURFACE
** BALL BEARING COMPRESSOR LINER
SE22E013, SE013E17
*SURFACE INTERACTION,NAME=IN5
*SURFACE BEHAVIOR,PRESSURE-OVERCLOSURE=TIED
1.E7
*GAP CONDUCTANCE
1.e2
*CONTACT PAIR,INTERACTION=IN5,TYPE=SURFACE TO SURFACE
** WEEL BALL BEARING
SE22E17, SE17E22
*SURFACE INTERACTION,NAME=IN5
*SURFACE BEHAVIOR,PRESSURE-OVERCLOSURE=TIED
1.E7
*GAP CONDUCTANCE
1.e2
*CONTACT PAIR,INTERACTION=IN1_,TYPE=SURFACE TO SURFACE
** WEEL SEAL
SE17E013, SE013E17
*SURFACE INTERACTION,NAME=IN1_
*SURFACE BEHAVIOR,PRESSURE-OVERCLOSURE=TIED
1.E7
*GAP CONDUCTANCE
1.e2
*CONTACT PAIR,INTERACTION=IN6,TYPE=SURFACE TO SURFACE
** BALL BEARING SOCKET
SE22E21, SE21E22
*SURFACE INTERACTION,NAME=IN6
*SURFACE BEHAVIOR,PRESSURE-OVERCLOSURE=TIED
1.E7
*GAP CONDUCTANCE
1.e2
*CONTACT PAIR,INTERACTION=IN7,TYPE=SURFACE TO SURFACE
** SOCKET HOUSING Front
SE21E20F, SE20E21F
*SURFACE INTERACTION,NAME=IN7
*SURFACE BEHAVIOR,PRESSURE-OVERCLOSURE=TIED
1.E7
*GAP CONDUCTANCE
1.e2
*CONTACT PAIR,INTERACTION=IN8,TYPE=SURFACE TO SURFACE
** SOCKET HOUSING Rear
SE21E20R, SE20E21R
*SURFACE INTERACTION,NAME=IN8
*SURFACE BEHAVIOR,PRESSURE-OVERCLOSURE=TIED
1.E7
*GAP CONDUCTANCE
1.e2
*CONTACT PAIR,INTERACTION=IN9,TYPE=SURFACE TO SURFACE
** HOUSING BEARING_CASING
SE16E20, SE20E16
*SURFACE INTERACTION,NAME=IN9
*SURFACE BEHAVIOR,PRESSURE-OVERCLOSURE=TIED
1.E7
*GAP CONDUCTANCE
1.e2
*CONTACT PAIR,INTERACTION=IN1a,TYPE=SURFACE TO SURFACE
** BEARING_CASING COMPRESSOR SEAL
SE16E05, SE05E16
*SURFACE INTERACTION,NAME=IN1a
*SURFACE BEHAVIOR,PRESSURE-OVERCLOSURE=TIED
1.E7
*GAP CONDUCTANCE
1.e2
*CONTACT PAIR,INTERACTION=IN10,TYPE=SURFACE TO SURFACE
** COMPRESSOR SEAL STATOR REAR
SE05E02, SE02E05
*SURFACE INTERACTION,NAME=IN10
*SURFACE BEHAVIOR,PRESSURE-OVERCLOSURE=TIED
1.E7
*GAP CONDUCTANCE
1.e2
*CONTACT PAIR,INTERACTION=IN11,TYPE=SURFACE TO SURFACE
** VANE STATOR REAR
SE24E02, SE02E24
*SURFACE INTERACTION,NAME=IN11
*SURFACE BEHAVIOR,PRESSURE-OVERCLOSURE=TIED
1.E7
*GAP CONDUCTANCE
1.e2
*CONTACT PAIR,INTERACTION=IN1b,TYPE=SURFACE TO SURFACE
** VANE STATOR FRONT
SE24E01, SE01E24
*SURFACE INTERACTION,NAME=IN1b
*SURFACE BEHAVIOR,PRESSURE-OVERCLOSURE=TIED
1.E7
*GAP CONDUCTANCE
1.e2
*CONTACT PAIR,INTERACTION=IN12,TYPE=SURFACE TO SURFACE
** STATOR REAR RING
SE03E02, SE02E03
*SURFACE INTERACTION,NAME=IN12
*SURFACE BEHAVIOR,PRESSURE-OVERCLOSURE=TIED
1.E7
*GAP CONDUCTANCE
1.e2
*CONTACT PAIR,INTERACTION=IN13,TYPE=SURFACE TO SURFACE
** RING OILTIN
SE03E04, SE04E03
*SURFACE INTERACTION,NAME=IN13
*SURFACE BEHAVIOR,PRESSURE-OVERCLOSURE=TIED
1.E7
*GAP CONDUCTANCE
1.e2
*CONTACT PAIR,INTERACTION=IN14,TYPE=SURFACE TO SURFACE
** OILTIN BC_SUPPORT
SE70E06, SE06E70
*SURFACE INTERACTION,NAME=IN14
*SURFACE BEHAVIOR,PRESSURE-OVERCLOSURE=TIED
1.E7
*GAP CONDUCTANCE
1.e2
*CONTACT PAIR,INTERACTION=IN15,TYPE=SURFACE TO SURFACE
** BC_SUPPORT HEAT_SHIELD
SE06E11, SE11E06
*SURFACE INTERACTION,NAME=IN15
*SURFACE BEHAVIOR,PRESSURE-OVERCLOSURE=TIED
1.E7
*GAP CONDUCTANCE
1.e2
*CONTACT PAIR,INTERACTION=IN16,TYPE=SURFACE TO SURFACE
** HEAT_SHIELD BEARING_CASING
SE015E11, SE11E015
*SURFACE INTERACTION,NAME=IN16
*SURFACE BEHAVIOR,PRESSURE-OVERCLOSURE=TIED
1.E7
*GAP CONDUCTANCE
1.e2
*CONTACT PAIR,INTERACTION=IN17,TYPE=SURFACE TO SURFACE
** BEARING_CHAMBER
SE015E16, SE16E015
*SURFACE INTERACTION,NAME=IN17
*SURFACE BEHAVIOR,PRESSURE-OVERCLOSURE=TIED
1.E7
*GAP CONDUCTANCE
1.e2
*CONTACT PAIR,INTERACTION=IN18,TYPE=SURFACE TO SURFACE
** BEARING_CASING SEALPLATE
SE015E14, SE14E015
*SURFACE INTERACTION,NAME=IN18
*SURFACE BEHAVIOR,PRESSURE-OVERCLOSURE=TIED
1.E7
*GAP CONDUCTANCE
1.e2
*CONTACT PAIR,INTERACTION=IN19,TYPE=SURFACE TO SURFACE
** BC_SUPPORT VANE
SLEE07, SE07LE
*SURFACE INTERACTION,NAME=IN19
*SURFACE BEHAVIOR,PRESSURE-OVERCLOSURE=TIED
1.E7
*GAP CONDUCTANCE
1.e2
*CONTACT PAIR,INTERACTION=IN20,TYPE=SURFACE TO SURFACE
** BOILER inner borders
SS07E07, SE07S07
*SURFACE INTERACTION,NAME=IN20
*SURFACE BEHAVIOR,PRESSURE-OVERCLOSURE=TIED
1.E7
*GAP CONDUCTANCE
1.e2
*CONTACT PAIR,INTERACTION=IN21,TYPE=SURFACE TO SURFACE
** BOILER inner borders
SE66E07, SE07E66
*SURFACE INTERACTION,NAME=IN21
*SURFACE BEHAVIOR,PRESSURE-OVERCLOSURE=TIED
1.E7
*GAP CONDUCTANCE
1.e2
*CONTACT PAIR,INTERACTION=IN22,TYPE=SURFACE TO SURFACE
** BOILER FLANGE
SE66E09, SE09E66
*SURFACE INTERACTION,NAME=IN22
*SURFACE BEHAVIOR,PRESSURE-OVERCLOSURE=TIED
1.E7
*GAP CONDUCTANCE
1.e2
*CONTACT PAIR,INTERACTION=IN23,TYPE=SURFACE TO SURFACE
** FLANGE CASING
SE09E69, SE69E09
*SURFACE INTERACTION,NAME=IN23
*SURFACE BEHAVIOR,PRESSURE-OVERCLOSURE=TIED
1.E7
*GAP CONDUCTANCE
1.e2
*CONTACT PAIR,INTERACTION=IN24,TYPE=SURFACE TO SURFACE
** CASING  BOILER
SE08E69, SE69E08
*SURFACE INTERACTION,NAME=IN24
*SURFACE BEHAVIOR,PRESSURE-OVERCLOSURE=TIED
1.E7
*GAP CONDUCTANCE
1.e2
*CONTACT PAIR,INTERACTION=IN25a,TYPE=SURFACE TO SURFACE
** INNER BOILER
SE08E66, SE66E08
*SURFACE INTERACTION,NAME=IN25a
*SURFACE BEHAVIOR,PRESSURE-OVERCLOSURE=TIED
1.E7
*GAP CONDUCTANCE
1.e2
*CONTACT PAIR,INTERACTION=IN25,TYPE=SURFACE TO SURFACE
** BOILER FLAME_TUBE
SE08E63, SE63E08
*SURFACE INTERACTION,NAME=IN25
*SURFACE BEHAVIOR,PRESSURE-OVERCLOSURE=TIED
1.E7
*GAP CONDUCTANCE
1.e2
*CONTACT PAIR,INTERACTION=IN26,TYPE=SURFACE TO SURFACE
** FLAME_TUBE RING
SE71E63, SE63E71
*SURFACE INTERACTION,NAME=IN26
*SURFACE BEHAVIOR,PRESSURE-OVERCLOSURE=TIED
1.E7
*GAP CONDUCTANCE
1.e2
*CONTACT PAIR,INTERACTION=IN27,TYPE=SURFACE TO SURFACE
** FLAME_TUBE inner borders
SE63S63, SS63E63
*SURFACE INTERACTION,NAME=IN27
*SURFACE BEHAVIOR,PRESSURE-OVERCLOSURE=TIED
1.E7
*GAP CONDUCTANCE
1.e2
*CONTACT PAIR,INTERACTION=IN28,TYPE=SURFACE TO SURFACE
** CASING STATOR FRONT
SE01E69, SE69E01
*SURFACE INTERACTION,NAME=IN28
*SURFACE BEHAVIOR,PRESSURE-OVERCLOSURE=TIED
1.E7
*GAP CONDUCTANCE
1.e2
*CONTACT PAIR,INTERACTION=IN29,TYPE=SURFACE TO SURFACE
** PISTONRING STATOR REAR
SPR1E05, SE05PR1
*SURFACE INTERACTION,NAME=IN29
*SURFACE BEHAVIOR,PRESSURE-OVERCLOSURE=TIED
1.E7
*GAP CONDUCTANCE
1.e2
*CONTACT PAIR,INTERACTION=IN30,TYPE=SURFACE TO SURFACE
** PISTONRING SEALPLATE
SPR2E014, SE014PR2
*SURFACE INTERACTION,NAME=IN30
*SURFACE BEHAVIOR,PRESSURE-OVERCLOSURE=TIED
1.E7
*GAP CONDUCTANCE
1.e2
*CONTACT PAIR,INTERACTION=IN31,TYPE=SURFACE TO SURFACE
** OILPLATE BALL BEARING
SOILPE22, SE22OILP
*SURFACE INTERACTION,NAME=IN31
*SURFACE BEHAVIOR,PRESSURE-OVERCLOSURE=TIED
1.E7
*GAP CONDUCTANCE
1.e2
*CONTACT PAIR,INTERACTION=IN32,TYPE=SURFACE TO SURFACE
** OILPLATE WEEL
SOILPE17, SE17OILP
*SURFACE INTERACTION,NAME=IN32
*SURFACE BEHAVIOR,PRESSURE-OVERCLOSURE=TIED
1.E7
*GAP CONDUCTANCE
1.e2
*CONTACT PAIR,INTERACTION=IN1,TYPE=SURFACE TO SURFACE
** Turbine blade disk
SE17BE17V, SE17VE17B
*SURFACE INTERACTION,NAME=IN1
*SURFACE BEHAVIOR,PRESSURE-OVERCLOSURE=TIED
1.E7
*GAP CONDUCTANCE
1.e2
**
**MATERIALPARAMETER:
*************************************************
**               MATERIALDATEN
**   (T IN CELSIUS, REST IM N,MM,S-SYSTEM, DH.:
**    E-MODUL IN N/MM**2, ALPHA IN 1/K, RHO IN
**    10**3*KG/MM**3, ZEIT IN S, VERSCHIEB. IN
**    MM, SPANNG. IN MPA)
*************************************************
*MATERIAL,NAME=C355
*ELASTIC
.75E5,0.3
*DENSITY
2.65E-9
*EXPANSION,TYPE=ISO,ZERO=293.
25.E-6,291.
** CONDUCTIVITY: T*mm/s2/K
*CONDUCTIVITY
150.,273.
** Nmm/T/K
*SPECIFIC HEAT
850.e6,273.
** N/mm/K4
*PHYSICAL CONSTANTS,ABSOLUTE ZERO=0.,STEFAN BOLTZMANN=5.669E-11
**
**WERKSTOFF=IN
*MATERIAL,NAME=IN
*ELASTIC,TYPE=ISO
2.08E5,0.3,291.
2.04E5,0.3,422.
1.96E5,0.3,589.
1.85E5,0.3,755.
1.74E5,0.3,922.
1.61E5,0.3,1089.
1.52E5,0.3,1220.
*EXPANSION,TYPE=ISO,ZERO=293.
13.5E-6,291.
13.6E-6,422.
13.9E-6,589.
14.2E-6,755.
14.7E-6,922.
15.5E-6,1089.
16.4E-6,1200.
*DENSITY
7.92E-9
** CONDUCTIVITY: T*mm/s2/K
*CONDUCTIVITY
10.,273.
18.,873.
27.,1373.
** Nmm/T/K
*SPECIFIC HEAT
450.e6,273.
580.e6,873.
710.e6,1373.
** N/mm/K4
*PHYSICAL CONSTANTS,ABSOLUTE ZERO=0.,STEFAN BOLTZMANN=5.669E-11
***********************************************************************
**ZUORDNUNG DER ELEMENTE ZU MATERIALIEN:
*SOLID SECTION,ELSET=Eall,MATERIAL=IN
*SOLID SECTION,ELSET=EC355,MATERIAL=C355
*SOLID SECTION,ELSET=EAl,MATERIAL=C355
** thickness distrib needed:
** volu/area*12:
*SOLID SECTION,ELSET=ELAT,MATERIAL=IN
32.
*SOLID SECTION,ELSET=ELET,MATERIAL=IN
20.
*SOLID SECTION,ELSET=ELAV,MATERIAL=C355
30.
** volu/area*19:
*SOLID SECTION,ELSET=ELEV,MATERIAL=C355
65.
***********************************************************************
*MATERIAL,NAME=GAS
*CONDUCTIVITY
** Nmm/mm/s/K
238.6e-4,0.
*FLUID CONSTANTS
1.032E9,71.1E-13,100.
*SPECIFIC GAS CONSTANT
287E6
*DENSITY
** T/mm3
1.293E-12
**FLUID SECTION,MATERIAL=GAS,ELSET=EINLET,TYPE=INOUT
**FLUID SECTION,MATERIAL=GAS,ELSET=ENETWORK,TYPE=GAS PIPE ADIABATIC 
**706.8583,30,-50,0,1,0,0,0,0,0
*FLUID SECTION,MATERIAL=GAS,ELSET=ENETWORK
**
***********************************************************************
*INITIAL CONDITIONS, TYPE=TEMPERATURE
Nall, 293.15
**
***********************************************************************
**              BELASTUNG UND AUSZUGEBENDE GROESSEN                  **
***********************************************************************
** fuer n=110000/min, mred=0.432 Kg/s pit=3.29 T2=449 T3=1198 T4&5=1065.6
** accel in 3sec
** calc with atari TL_MESS.BAS
**SectionNr(TL_MESS.BAS),Mass%, mass, Tf K
**1 14.2 0,061344 1449  Boiler
**2 0.3  -	 1332  -
**3 0.3  -	 1332  -
**4 54.1 0,234144 1510  Bore 20x 9mm
**5 18.5 0,07992  1952  Bore 16x 5.5mm
**6 12.5 0,054	 858  Rear Gap 0.5mm
**7 0.1  0,000432 858  Torch 2mm
**
*AMPLITUDE, NAME=BOU_M_ACC
0.,0.25,3.,1.,1000.,1.
*AMPLITUDE, NAME=BOU_T2_ACC
0.,0.651,3.,1.,1000.,1.
*AMPLITUDE, NAME=BOU_T3_ACC
0.,0.55,3.,1.,1000.,1.
*AMPLITUDE, NAME=FILM_ACC
0., 0.22,3.,1.,1000.,1.
*AMPLITUDE, NAME=ALPHA_ACC
0.,0.,3.,1.,1000.,1.
** TBD:
*AMPLITUDE, NAME=FILM_DEC
0.,1.,3.,0.22,1000.,0.22
*AMPLITUDE, NAME=ALPHA_DEC
0.,1.,3.,0.,1000.,0.
**
*STEP, INC=1000000
** *HEAT TRANSFER, STEADY STATE
*HEAT TRANSFER
1.e-1,120.,,2.
** masses calculated with atari TL_MESS.BAS
*BOUNDARY, AMPLITUDE=BOU_M_ACC
NNW_COMPR,1,1,0.432e-3
NNW_BOIL,1,1,0.061344e-3
** -BOIL
NNW_BC1,1,1,0.371e-3
** -Bore 20x 9mm 
NNW_BC2,1,1,0.137e-3
** -Bore 16x 5.5mm
NNW_BC3,1,1,0.057e-3
** Bore 20x 9mm  
NNW_BC4,1,1,0.234144e-3
** Bore 16x 5.5mm
NNW_BC5,1,1,0.07992e-3
** Nr(TL_MESS.BAS): 1,6,7,5*2/3
NNW_FLAMTO1,1,1,0.169e-3
** + 5*1/3, 4*2/3
NNW_FLAMTO2,1,1,0.35179e-3
** +  4*1/3, 3
NNW_FLAMTO3,1,1,0.430e-3
** rest
NNW_FLAMTO4,1,1,0.432e-3 
**
**NP_IN,2,2,0.21
**NP_OUT,2,2,0.2
**
*BOUNDARY
NP_IN,11,11,293.
*BOUNDARY, AMPLITUDE=BOU_T2_ACC
** T2 from TL_MESS.BAS
NP_LAVW,11,11,450.
**
*BOUNDARY, AMPLITUDE=BOU_T3_ACC
** matched with tempering colors
**http://www.euen-schweisstechnik.de/media/hpa/info/Schutzgasschweiss_und_Formieren_Linde.pdf
** page 42,43
** Twall~ 1200.
** from TL_MESS.BAS
NP_FLAMT1,11,11,1952.
NP_FLAMT2,11,11,1510.
NP_FLAMT3,11,11,1332.
NP_FLAMT4,11,11,1198.
**
***FILM, AMPLITUDE=FILM_ACC, FILM AMPLITUDE=ALPHA_ACC
*FILM, FILM AMPLITUDE=ALPHA_ACC
*include, input=LAVLE.flm
*include, input=LAVW.flm
*include, input=LAV.flm
*include, input=LAVR.flm
*include, input=LEVLE.flm
*include, input=LEVW.flm
*include, input=LEV.flm
*include, input=LEVBEND.flm
*include, input=LEVCH1.flm
*include, input=LEVCH2.flm
*include, input=CAV1.flm
*include, input=CAV2.flm
*include, input=CAV3.flm
*include, input=LETCORE.flm
*include, input=LETCORE.flm
*include, input=BOILIN.flm
*include, input=BOILO1.flm
*include, input=BOILO2 .flm
*include, input=BOILI.flm
*include, input=BC1.flm
*include, input=BC2.flm
*include, input=BC3.flm
*include, input=BC4.flm
*include, input=BC5.flm
*include, input=FLAMTO1.flm
*include, input=FLAMTO2.flm
*include, input=FLAMTO3.flm
*include, input=FLAMTO4.flm
*include, input=FLAMTI1.flm
*include, input=FLAMTI2.flm
*include, input=FLAMTI3.flm
*include, input=LETLE.flm
*include, input=LET.flm
*include, input=LATLE.flm
*include, input=LATW.flm
*include, input=LAT.flm
*include, input=LATR.flm
*include, input=NOZ1.flm
*include, input=NOZ2.flm
** OIL
*include, input=OILFACES.flm
**
***RADIATE, AMPLITUDE=RAD_ACC, RADIATION AMPLITUDE=RAD_ACC
*RADIATE
*include, input=OUTERFACES.rad
*RADIATE, CAVITY=1
*include, input=HOTFACES.rad
*RADIATE, CAVITY=2
*include, input=COLDFACES.rad
**  
*NODE PRINT,FREQUENCY=0
*EL PRINT,FREQUENCY=0
***NODE FILE, OUTPUT=3D, CONTACTELEMENTS
*NODE FILE
NT,RFL,PS,TS
***EL FILE, OUTPUT=3D, CONTACTELEMENTS
*EL FILE
** WARNING: HER leads to segfault
**HFL,HER
HFL
*END STEP
