**D-ring example
**Simple structure with contact
**<img src="dring.jpg">

*NODE, NSET=Nall
       1,1.250000000000e-01,1.999000000000e+00,-2.500000000000e-01
       2,1.250000000000e-01,1.999000000000e+00,2.500000000000e-01
       3,9.575556000000e-02,2.079348000000e+00,-2.500000000000e-01
       4,2.170602000000e-02,2.122101000000e+00,-2.500000000000e-01
       5,-6.250000000000e-02,2.107253000000e+00,-2.500000000000e-01
       6,-1.174616000000e-01,2.041753000000e+00,-2.500000000000e-01
       7,-1.174616000000e-01,1.956247000000e+00,-2.500000000000e-01
       8,-6.250000000000e-02,1.890747000000e+00,-2.500000000000e-01
       9,2.170602000000e-02,1.875899000000e+00,-2.500000000000e-01
      10,9.575556000000e-02,1.918652000000e+00,-2.500000000000e-01
      11,9.569944000000e-02,2.079415000000e+00,2.500000000000e-01
      12,2.140517000000e-02,2.122154000000e+00,2.500000000000e-01
      13,-6.272659000000e-02,2.107122000000e+00,2.500000000000e-01
      14,-1.175360000000e-01,2.041547000000e+00,2.500000000000e-01
      15,-1.174018000000e-01,1.956084000000e+00,2.500000000000e-01
      16,-6.238660000000e-02,1.890681000000e+00,2.500000000000e-01
      17,2.179196000000e-02,1.875914000000e+00,2.500000000000e-01
      18,9.578360000000e-02,1.918685000000e+00,2.500000000000e-01
      19,1.250000000000e-01,1.999000000000e+00,-1.666667000000e-01
      20,1.250000000000e-01,1.999000000000e+00,-8.333333000000e-02
** ... 12329 like lines cut
*ELEMENT, TYPE=C3D10, ELSET=Eall
   171,    81,    11,    23,    51,   321,   155,   320,   322,   210,   208 
   172,    36,    17,    29,    35,   168,   151,   323,   216,   167,   324 
   173,    33,    32,    82,    62,   213,   326,   325,   250,   249,   327 
   174,    76,    57,    66,    72,   329,   268,   328,   330,   297,   296 
   175,    91,    96,    68,    70,   332,   334,   331,   333,   335,   289 
   176,    37,    18,    29,    36,   170,   152,   336,   173,   169,   323 
   177,    88,    26,    86,    92,   338,   340,   337,   339,   342,   341 
   178,    97,    77,    50,    39,   344,   346,   343,   345,   348,   347 
   179,    71,    68,    69,    83,   314,   313,   308,   349,   351,   350 
   180,    85,    63,    33,    62,   353,   251,   352,   354,   272,   250 
   181,    73,    75,    90,    98,   309,   357,   355,   356,   359,   358 
   182,    79,    85,    80,    40,   361,   363,   360,   362,   365,   364 
   183,    87,    56,    92,    95,   367,   369,   366,   368,   371,   370 
   184,    97,    50,    77,    60,   343,   346,   344,   372,   247,   373 
   185,    54,    90,    85,    62,   375,   376,   374,   279,   377,   354 
   186,    82,    30,    51,    60,   379,   211,   378,   380,   244,   243 
   187,    77,    53,    49,    21,   382,   384,   381,   383,   221,   202 
   188,    97,    79,    77,    39,   385,   386,   344,   345,   387,   348 
   189,    96,    70,    83,    68,   335,   389,   388,   334,   289,   351 
   190,    69,    75,    84,    83,   317,   391,   390,   350,   393,   392 
** ... 6452 like lines cut
** Names based on slave1
*NSET,NSET=slave1 
7186, 
7187, 
7188, 
7189, 
7214, 
7215, 
7216, 
7217, 
7218, 
7225, 
7226, 
7227, 
7228, 
7229, 
7343, 
7344, 
7345, 
7346, 
7347, 
7348, 
** ... 625 like lines cut
** Names based on master1
*NSET,NSET=master1 
583, 
584, 
585, 
586, 
594, 
597, 
599, 
600, 
601, 
602, 
603, 
604, 
605, 
606, 
607, 
608, 
609, 
610, 
611, 
612, 
** ... 468 like lines cut
** Names based on fix-UY
*NSET,NSET=fix-UY 
1, 
2, 
3, 
4, 
5, 
6, 
7, 
8, 
9, 
10, 
11, 
12, 
13, 
14, 
15, 
16, 
17, 
18, 
24, 
25, 
** ... 52 like lines cut
** Names based on Solid_4
*ELSET,ELSET=Solid_4 
2310, 
2311, 
2312, 
2313, 
2314, 
2315, 
2316, 
2317, 
2318, 
2319, 
2320, 
2321, 
2322, 
2323, 
2324, 
2325, 
2326, 
2327, 
2328, 
2329, 
** ... 3628 like lines cut
** Names based on Solid_5
*ELSET,ELSET=Solid_5 
171, 
172, 
173, 
174, 
175, 
176, 
177, 
178, 
179, 
180, 
181, 
182, 
183, 
184, 
185, 
186, 
187, 
188, 
189, 
190, 
** ... 290 like lines cut
** Names based on weld
*NSET,NSET=weld 
7180, 
7181, 
7182, 
7183, 
7192, 
7193, 
7195, 
7196, 
7211, 
7221, 
7222, 
7232, 
7284, 
7285, 
7286, 
7287, 
7288, 
7289, 
7290, 
7291, 
** ... 472 like lines cut
** Names based on master2
*NSET,NSET=master2 
1, 
2, 
3, 
4, 
5, 
6, 
7, 
8, 
9, 
10, 
11, 
12, 
13, 
14, 
15, 
16, 
17, 
18, 
19, 
20, 
** ... 238 like lines cut
** Names based on Solid_3
*ELSET,ELSET=Solid_3 
7972, 
7973, 
7974, 
7975, 
7976, 
7977, 
7978, 
7979, 
7980, 
7981, 
7982, 
7983, 
7984, 
7985, 
7986, 
7987, 
7988, 
7989, 
7990, 
7991, 
** ... 2494 like lines cut
** Names based on slave2
*NSET,NSET=slave2 
590, 
591, 
592, 
593, 
666, 
667, 
668, 
669, 
670, 
671, 
672, 
673, 
674, 
675, 
676, 
677, 
678, 
679, 
680, 
681, 
** ... 1600 like lines cut
** Names based on C3D10
*ELSET,ELSET=C3D10 
171, 
172, 
173, 
174, 
175, 
176, 
177, 
178, 
179, 
180, 
181, 
182, 
183, 
184, 
185, 
186, 
187, 
188, 
189, 
190, 
** ... 6452 like lines cut
** Surfaces based on slave1
*SURFACE, NAME=slave1
10359, S2
9324, S2
8383, S1
7978, S3
9549, S2
10350, S1
9055, S2
10248, S2
9608, S4
10196, S2
10481, S3
8118, S1
8397, S2
8595, S3
9139, S4
8385, S3
8388, S3
8942, S3
8672, S2
9328, S2
** ... 276 like lines cut
** Surfaces based on weld
*SURFACE, NAME=weld
10046, S1
9915, S1
9688, S3
10223, S4
8796, S1
8799, S4
8817, S4
9791, S1
10232, S4
10186, S1
8662, S4
8870, S4
9594, S4
10090, S1
8943, S4
8481, S1
9619, S2
7975, S1
8203, S3
10410, S1
** ... 180 like lines cut
** Surfaces based on C3D10
*SURFACE, NAME=C3D10
** Surfaces based on Solid_5
*SURFACE, NAME=Solid_5
** Surfaces based on Solid_4
*SURFACE, NAME=Solid_4
** Surfaces based on master1
*SURFACE, NAME=master1
4274, S1
3366, S2
4131, S3
3784, S2
3580, S2
4749, S2
4327, S2
2611, S4
3589, S3
4865, S3
5273, S3
4393, S1
4585, S3
4631, S1
4650, S3
2352, S3
3602, S2
4565, S3
3001, S3
4636, S3
** ... 197 like lines cut
** Surfaces based on fix-UY
*SURFACE, NAME=fix-UY
271, S1
440, S2
400, S2
212, S1
281, S4
313, S4
334, S4
338, S1
339, S1
214, S3
344, S1
262, S3
229, S2
394, S2
286, S1
435, S3
369, S3
359, S4
318, S2
284, S3
** ... 6 like lines cut
** Surfaces based on all
*SURFACE, NAME=all
271, S1
271, S3
307, S3
440, S2
332, S2
260, S3
400, S2
212, S1
212, S3
341, S2
281, S4
281, S3
288, S2
313, S4
313, S2
334, S4
333, S2
338, S1
338, S2
211, S3
** ... 3482 like lines cut
** Surfaces based on master2
*SURFACE, NAME=master2
271, S3
307, S3
332, S2
260, S3
212, S3
341, S2
281, S3
288, S2
313, S2
333, S2
338, S2
211, S3
339, S3
376, S3
214, S1
343, S4
263, S3
226, S3
229, S4
275, S3
** ... 100 like lines cut
** Surfaces based on Solid_3
*SURFACE, NAME=Solid_3
** Surfaces based on slave2
*SURFACE, NAME=slave2
4235, S2
4291, S2
3494, S2
3433, S4
3434, S4
4403, S2
2640, S1
2891, S2
2753, S2
4999, S3
3222, S4
3866, S4
2783, S1
4398, S4
3703, S1
3625, S4
2887, S3
3514, S3
2981, S3
3337, S2
** ... 780 like lines cut

*MATERIAL,NAME=steel
*ELASTIC
2.9000E+07,0.28


*DENSITY
7.3500E-04
*EXPANSION
7.2280E-06

*SOLID SECTION,MATERIAL=steel,ELSET=Eall

*BOUNDARY
weld,1,1,0
weld,2,2,0
weld,3,3,0

*BOUNDARY
fix-UY,1,1,0
fix-UY,2,2,0.125
fix-UY,3,3,0

*CONTACT PAIR,INTERACTION=SI1,TYPE=SURFACE TO SURFACE,ADJUST=0
slave1,master1
*SURFACE INTERACTION,NAME=SI1
*SURFACE BEHAVIOR,PRESSURE-OVERCLOSURE=Linear
1450000000,0

*FRICTION
0.25,145000000

*CONTACT PAIR,INTERACTION=SI2,TYPE=SURFACE TO SURFACE,ADJUST=0
slave2,master2
*SURFACE INTERACTION,NAME=SI2
*SURFACE BEHAVIOR,PRESSURE-OVERCLOSURE=Linear
1450000000,0

*FRICTION
0.25,145000000



*STEP,NLGEOM,INC=1000
*STATIC
0.025,1
  *NODE FILE 
U,
  *EL FILE
S,
*NODE PRINT,NSET=weld
RF
*NODE PRINT,NSET=fix-UY
RF
*CONTACT OUTPUT
CDIS,CSTR 
*END STEP
