**Boat on water
** Contact problem with elastic support
** This is simulation of Winkler base, calculated
** based on linear contact model. Read CGX help for more information
**https://youtu.be/bXWuHN1Waes
**<img src="boat.jpg">


*NODE, NSET=Nall
       1,2.020592000000e+00,1.363384231901e-17,5.000000000000e-01
       2,2.020592000000e+00,1.363384231901e-17,-5.000000000000e-01
       3,3.020592000000e+00,1.363384231901e-17,5.000000000000e-01
       4,3.020592000000e+00,1.363384231901e-17,-5.000000000000e-01
       5,4.000000000000e+00,1.363384231901e-17,0.000000000000e+00
       6,1.896154000000e+00,1.363384231901e-17,-7.500000000000e-01
       7,5.432937086325e-16,-3.407105327036e-17,-3.500000000000e-01
       8,1.896154000000e+00,1.363384231901e-17,7.500000000000e-01
       9,-9.832629502271e-16,3.475681114445e-16,3.500000000000e-01
      10,1.878738000000e+00,7.000000000000e-01,1.153770000000e+00
      11,-1.471639000000e-01,7.000000000000e-01,7.263989000000e-01
      12,4.567291000000e+00,7.000000000000e-01,-7.598939000000e-16
      13,1.878738000000e+00,7.000000000000e-01,-1.153770000000e+00
      14,-1.471639000000e-01,7.000000000000e-01,-7.263989000000e-01
      15,4.684497000000e+00,-3.000000000000e-03,2.000000000000e+00
      16,-8.155033000000e-01,-3.000000000000e-03,2.000000000000e+00
      17,-8.155033000000e-01,-3.000000000000e-03,-2.000000000000e+00
      18,4.684497000000e+00,-3.000000000000e-03,-2.000000000000e+00
      19,1.401406000000e-01,1.363384231901e-17,4.027538000000e-01
      20,2.815736000000e-01,1.363384231901e-17,4.519380000000e-01
** ... 7440 like lines cut
*ELEMENT, TYPE=S6, ELSET=Eall
   322,     19,      9,    317,   1919,   2240,   2241
   323,      9,     34,    317,   1936,   2242,   2240
   324,     20,     19,    318,   1920,   2243,   2244
   325,     19,    317,    318,   2241,   2245,   2243
   326,     21,     20,    319,   1921,   2246,   2247
   327,     20,    318,    319,   2244,   2248,   2246
   328,     22,     21,    320,   1922,   2249,   2250
   329,     21,    319,    320,   2247,   2251,   2249
   330,     23,     22,    321,   1923,   2252,   2253
   331,     22,    320,    321,   2250,   2254,   2252
   332,     24,     23,    322,   1924,   2255,   2256
   333,     23,    321,    322,   2253,   2257,   2255
   334,     25,     24,    323,   1925,   2258,   2259
   335,     24,    322,    323,   2256,   2260,   2258
   336,     26,     25,    324,   1926,   2261,   2262
   337,     25,    323,    324,   2259,   2263,   2261
   338,     27,     26,    325,   1927,   2264,   2265
   339,     26,    324,    325,   2262,   2266,   2264
   340,     28,     27,    326,   1928,   2267,   2268
   341,     27,    325,    326,   2265,   2269,   2267
** ... 3606 like lines cut
** Names based on S6
*ELSET,ELSET=S6 
322, 
323, 
324, 
325, 
326, 
327, 
328, 
329, 
330, 
331, 
332, 
333, 
334, 
335, 
336, 
337, 
338, 
339, 
340, 
341, 
** ... 3606 like lines cut
** Names based on load
*NSET,NSET=load 
1, 
2, 
3, 
4, 
75, 
76, 
77, 
78, 
79, 
80, 
81, 
82, 
83, 
84, 
85, 
86, 
87, 
88, 
89, 
90, 
** ... 209 like lines cut
** Names based on fix_x_z
*NSET,NSET=fix_x_z 
11, 
14, 
184, 
185, 
186, 
187, 
188, 
189, 
190, 
191, 
192, 
2102, 
2103, 
2104, 
2105, 
2106, 
2107, 
2108, 
2109, 
2110, 
2111, 
** Names based on water
*NSET,NSET=water 
15, 
16, 
17, 
18, 
193, 
194, 
195, 
196, 
197, 
198, 
199, 
200, 
201, 
202, 
203, 
204, 
205, 
206, 
207, 
208, 
** ... 4857 like lines cut
*ELSET,ELSET=water 
1574, 
1575, 
1576, 
1577, 
1578, 
1579, 
1580, 
1581, 
1582, 
1583, 
1584, 
1585, 
1586, 
1587, 
1588, 
1589, 
1590, 
1591, 
1592, 
1593, 
** ... 2354 like lines cut
** Names based on boat
*NSET,NSET=boat 
1, 
2, 
3, 
4, 
5, 
6, 
7, 
8, 
9, 
10, 
11, 
12, 
13, 
14, 
19, 
20, 
21, 
22, 
23, 
24, 
** ... 2563 like lines cut
*ELSET,ELSET=boat 
322, 
323, 
324, 
325, 
326, 
327, 
328, 
329, 
330, 
331, 
332, 
333, 
334, 
335, 
336, 
337, 
338, 
339, 
340, 
341, 
** ... 1232 like lines cut
** Surfaces based on water
*SURFACE, NAME=water
1767, SPOS 
1768, SPOS 
1697, SPOS 
1644, SPOS 
1645, SPOS 
1574, SPOS 
1575, SPOS 
1819, SPOS 
1576, SPOS 
1577, SPOS 
1578, SPOS 
1579, SPOS 
1580, SPOS 
1581, SPOS 
1582, SPOS 
1583, SPOS 
1584, SPOS 
1585, SPOS 
1586, SPOS 
1587, SPOS 
** ... 2354 like lines cut
** Surfaces based on all
*SURFACE, NAME=all
462, SPOS 
553, SPOS 
1411, SPOS 
434, SPOS 
461, SPOS 
396, SPOS 
457, SPOS 
456, SPOS 
1399, SPOS 
445, SPOS 
452, SPOS 
404, SPOS 
459, SPOS 
406, SPOS 
1407, SPOS 
428, SPOS 
390, SPOS 
417, SPOS 
433, SPOS 
1403, SPOS 
** ... 3606 like lines cut
** Surfaces based on load
*SURFACE, NAME=load
1411, SPOS 
1399, SPOS 
1407, SPOS 
1403, SPOS 
1404, SPOS 
1419, SPOS 
1421, SPOS 
1420, SPOS 
1405, SPOS 
1422, SPOS 
1423, SPOS 
1436, SPOS 
1406, SPOS 
1440, SPOS 
1424, SPOS 
1448, SPOS 
1400, SPOS 
1434, SPOS 
1416, SPOS 
1415, SPOS 
** ... 80 like lines cut
** Surfaces based on S6
*SURFACE, NAME=S6
** Surfaces based on boat
*SURFACE, NAME=boat
462, SPOS 
553, SPOS 
1411, SPOS 
434, SPOS 
461, SPOS 
396, SPOS 
457, SPOS 
456, SPOS 
1399, SPOS 
445, SPOS 
452, SPOS 
404, SPOS 
459, SPOS 
406, SPOS 
1407, SPOS 
428, SPOS 
390, SPOS 
417, SPOS 
433, SPOS 
1403, SPOS 
** ... 1232 like lines cut
** Surfaces based on fix_x_z
*SURFACE, NAME=fix_x_z
*MATERIAL,NAME=ssteel
*ELASTIC
1.9300E+11,0.29
*DENSITY
8.0000E+03


*SHELL SECTION,MATERIAL=ssteel,ELSET=Eall,,OFFSET=0.0000E+00
3.0000E-03

*BOUNDARY
water,1,1,0
water,2,2,0
water,3,3,0

*BOUNDARY
fix_x_z,1,1,0
fix_x_z,3,3,0

*CONTACT PAIR,INTERACTION=SI1,TYPE=SURFACE TO SURFACE
water,boat
*SURFACE INTERACTION,NAME=SI1
*SURFACE BEHAVIOR,PRESSURE-OVERCLOSURE=Linear
9800,0

*STEP
*STATIC
*CLOAD
load,2,-1.0917E+01

  *NODE FILE 
U,
  *EL FILE
S,
*NODE PRINT,NSET=water
RF
*NODE PRINT,NSET=fix_x_z
RF
*END STEP
