**Static with S8R shells (2)
**This example of nodal load on structure
** CCX *CLOAD card is applied. Full force is shared between all nodes.


*NODE, NSET=Nall
       1,0.000000000000e+000,0.000000000000e+000,-2.400000000000e+001
       2,0.000000000000e+000,0.000000000000e+000,0.000000000000e+000
       3,2.400000000000e+001,0.000000000000e+000,0.000000000000e+000
       4,2.400000000000e+001,0.000000000000e+000,-2.400000000000e+001
       5,0.000000000000e+000,0.000000000000e+000,-2.100000000000e+001
       6,0.000000000000e+000,0.000000000000e+000,-1.800000000000e+001
       7,0.000000000000e+000,0.000000000000e+000,-1.500000000000e+001
       8,0.000000000000e+000,0.000000000000e+000,-1.200000000000e+001
       9,0.000000000000e+000,0.000000000000e+000,-9.000000000000e+000
      10,0.000000000000e+000,0.000000000000e+000,-6.000000000000e+000
      11,0.000000000000e+000,0.000000000000e+000,-3.000000000000e+000
      12,3.000000000000e+000,0.000000000000e+000,0.000000000000e+000
      13,6.000000000000e+000,0.000000000000e+000,0.000000000000e+000
      14,9.000000000000e+000,0.000000000000e+000,0.000000000000e+000
      15,1.200000000000e+001,0.000000000000e+000,0.000000000000e+000
      16,1.500000000000e+001,0.000000000000e+000,0.000000000000e+000
      17,1.800000000000e+001,0.000000000000e+000,0.000000000000e+000
      18,2.100000000000e+001,0.000000000000e+000,0.000000000000e+000
      19,2.400000000000e+001,0.000000000000e+000,-3.000000000000e+000
      20,2.400000000000e+001,0.000000000000e+000,-6.000000000000e+000
** ... 205 like lines cut
*ELEMENT, TYPE=S8, ELSET=Eall
    33,     35,     42,     45,     44,     82,     83,     84,     85
    34,     42,     38,     43,     45,     87,     88,     89,     83
    35,     45,     43,      8,      9,     89,     91,     92,     93
    36,     44,     45,      9,     10,     84,     93,     95,     96
    37,     34,     46,     49,     48,     98,     99,    100,    101
    38,     46,     40,     47,     49,    103,    104,    105,     99
    39,     49,     47,     29,     30,    105,    107,    108,    109
    40,     48,     49,     30,     31,    100,    109,    111,    112
    41,     37,     50,     53,     52,    114,    115,    116,    117
    42,     50,     41,     51,     53,    119,    120,    121,    115
    43,     53,     51,     22,     23,    121,    123,    124,    125
    44,     52,     53,     23,     24,    116,    125,    127,    128
    45,     36,     54,     57,     56,    130,    131,    132,    133
    46,     54,     39,     55,     57,    135,    136,    137,    131
    47,     57,     55,     15,     16,    137,    139,    140,    141
    48,     56,     57,     16,     17,    132,    141,    143,    144
    49,     35,     58,     60,     59,    146,    147,    148,    149
    50,     58,     13,     14,     60,    151,    152,    153,    147
    51,     60,     14,     15,     55,    153,    155,    139,    156
    52,     59,     60,     55,     39,    148,    156,    136,    158
** ... 44 like lines cut
** Names based on CURVE1
*NSET,NSET=CURVE1 
1, 
2, 
5, 
6, 
7, 
8, 
9, 
10, 
11, 
** Names based on CURVE2
*NSET,NSET=CURVE2 
2, 
3, 
12, 
13, 
14, 
15, 
16, 
17, 
18, 
** Names based on CURVE3
*NSET,NSET=CURVE3 
3, 
4, 
19, 
20, 
21, 
22, 
23, 
24, 
25, 
** Names based on CURVE4
*NSET,NSET=CURVE4 
1, 
4, 
26, 
27, 
28, 
29, 
30, 
31, 
32, 
** Names based on surf
*ELSET,ELSET=surf 
33, 
34, 
35, 
36, 
37, 
38, 
39, 
40, 
41, 
42, 
43, 
44, 
45, 
46, 
47, 
48, 
49, 
50, 
51, 
52, 
** ... 44 like lines cut
** Names based on fix_y
*NSET,NSET=fix_y 
1, 
2, 
3, 
4, 
5, 
6, 
7, 
8, 
9, 
10, 
11, 
12, 
13, 
14, 
15, 
16, 
17, 
18, 
26, 
27, 
** ... 5 like lines cut
** Names based on fix_z
*NSET,NSET=fix_z 
1, 
4, 
** Names based on fix_x
*NSET,NSET=fix_x 
1, 
2, 
** Names based on nload
*NSET,NSET=nload 
1, 
2, 
3, 
4, 
5, 
6, 
7, 
8, 
9, 
10, 
11, 
12, 
13, 
14, 
15, 
16, 
17, 
18, 
19, 
20, 
** ... 61 like lines cut




*MATERIAL,NAME=Steel
*ELASTIC
2.9000E+07,0.3
*DENSITY
7.3500E-04

*SHELL SECTION,MATERIAL=Steel,ELSET=surf,,OFFSET=0.0000E+00
5.0000E-01

*BOUNDARY
fix_y,2,2,0

*BOUNDARY
fix_z,3,3,0

*BOUNDARY
fix_x,1,1,0


*STEP
*STATIC
*CLOAD
nload,2,2.4691E+01
  *NODE FILE 
U,
  *EL FILE
S,
*END STEP
