**Static with S6 shells
**Static problem for S6 type of shells

*INCLUDE, INPUT=allinone2.inp

*MATERIAL,NAME=Steel
*ELASTIC
2.9000E+07,0.3
*DENSITY
7.3500E-04

*SHELL SECTION,MATERIAL=Steel,ELSET=Eall,,OFFSET=0.0000E+00
5.0000E-01


*BOUNDARY
fix_y,2,2,0

*BOUNDARY
fix_x,1,1,0

*BOUNDARY
fix_z,3,3,0

*STEP
*STATIC
*AMPLITUDE,NAME=force_SURFACE1
0.,1
*DLOAD,AMPLITUDE=force_SURFACE1
*INCLUDE, INPUT=SURFACE1_0.dlo
  *NODE FILE 
U,
  *EL FILE
S,
*END STEP
