**Amplitude and Time Delay
**Static with shell elements
**https://youtu.be/Kwn7F7KNZ54
**<img src="amplitude.jpg">

*NODE, NSET=Nall
       1,-1.500000000000e+00,-5.000000000000e-01,0.000000000000e+00
       2,-1.500000000000e+00,5.000000000000e-01,0.000000000000e+00
       3,1.500000000000e+00,-5.000000000000e-01,0.000000000000e+00
       4,1.500000000000e+00,5.000000000000e-01,0.000000000000e+00
       5,-1.500000000000e+00,-2.500000000000e-01,0.000000000000e+00
       6,-1.500000000000e+00,0.000000000000e+00,0.000000000000e+00
       7,-1.500000000000e+00,2.500000000000e-01,0.000000000000e+00
       8,-1.250000000000e+00,-5.000000000000e-01,0.000000000000e+00
       9,-1.000000000000e+00,-5.000000000000e-01,0.000000000000e+00
      10,-7.500000000000e-01,-5.000000000000e-01,0.000000000000e+00
      11,-5.000000000000e-01,-5.000000000000e-01,0.000000000000e+00
      12,-2.500000000000e-01,-5.000000000000e-01,0.000000000000e+00
      13,0.000000000000e+00,-5.000000000000e-01,0.000000000000e+00
      14,2.500000000000e-01,-5.000000000000e-01,0.000000000000e+00
      15,5.000000000000e-01,-5.000000000000e-01,0.000000000000e+00
      16,7.500000000000e-01,-5.000000000000e-01,0.000000000000e+00
      17,1.000000000000e+00,-5.000000000000e-01,0.000000000000e+00
      18,1.250000000000e+00,-5.000000000000e-01,0.000000000000e+00
      19,1.500000000000e+00,-2.500000000000e-01,0.000000000000e+00
      20,1.500000000000e+00,0.000000000000e+00,0.000000000000e+00
** ... 157 like lines cut
*ELEMENT, TYPE=S8R, ELSET=Eall
    33,      2,     22,     33,      7,     86,     99,     98,     69
    34,     22,     23,     34,     33,     87,    101,    100,     99
    35,     23,     24,     35,     34,     88,    103,    102,    101
    36,     24,     25,     36,     35,     89,    105,    104,    103
    37,     25,     26,     37,     36,     90,    107,    106,    105
    38,     26,     27,     38,     37,     91,    109,    108,    107
    39,     27,     28,     39,     38,     92,    111,    110,    109
    40,     28,     29,     40,     39,     93,    113,    112,    111
    41,     29,     30,     41,     40,     94,    115,    114,    113
    42,     30,     31,     42,     41,     95,    117,    116,    115
    43,     31,     32,     43,     42,     96,    119,    118,    117
    44,     32,      4,     21,     43,     97,     85,    120,    119
    45,      7,     33,     44,      6,     98,    122,    121,     68
    46,     33,     34,     45,     44,    100,    124,    123,    122
    47,     34,     35,     46,     45,    102,    126,    125,    124
    48,     35,     36,     47,     46,    104,    128,    127,    126
    49,     36,     37,     48,     47,    106,    130,    129,    128
    50,     37,     38,     49,     48,    108,    132,    131,    130
    51,     38,     39,     50,     49,    110,    134,    133,    132
    52,     39,     40,     51,     50,    112,    136,    135,    134
** ... 28 like lines cut
** Names based on S8R
*ELSET,ELSET=S8R 
33, 
34, 
35, 
36, 
37, 
38, 
39, 
40, 
41, 
42, 
43, 
44, 
45, 
46, 
47, 
48, 
49, 
50, 
51, 
52, 
** ... 28 like lines cut
** Names based on load
*NSET,NSET=load 
1, 
2, 
3, 
4, 
5, 
6, 
7, 
8, 
9, 
10, 
11, 
12, 
13, 
14, 
15, 
16, 
17, 
18, 
19, 
20, 
** ... 157 like lines cut
*ELSET,ELSET=load 
33, 
34, 
35, 
36, 
37, 
38, 
39, 
40, 
41, 
42, 
43, 
44, 
45, 
46, 
47, 
48, 
49, 
50, 
51, 
52, 
** ... 28 like lines cut
** Names based on fix2
*NSET,NSET=fix2 
3, 
4, 
19, 
20, 
21, 
82, 
83, 
84, 
85, 
** Names based on fix1
*NSET,NSET=fix1 
1, 
2, 
5, 
6, 
7, 
66, 
67, 
68, 
69, 
** Surfaces based on fix2
*SURFACE, NAME=fix2
** Surfaces based on load
*SURFACE, NAME=load
69, SPOS 
33, SPOS 
80, SPOS 
44, SPOS 
57, SPOS 
45, SPOS 
70, SPOS 
71, SPOS 
72, SPOS 
73, SPOS 
74, SPOS 
75, SPOS 
76, SPOS 
77, SPOS 
78, SPOS 
79, SPOS 
68, SPOS 
56, SPOS 
34, SPOS 
35, SPOS 
** ... 28 like lines cut
** Surfaces based on all
*SURFACE, NAME=all
69, SPOS 
33, SPOS 
80, SPOS 
44, SPOS 
57, SPOS 
45, SPOS 
70, SPOS 
71, SPOS 
72, SPOS 
73, SPOS 
74, SPOS 
75, SPOS 
76, SPOS 
77, SPOS 
78, SPOS 
79, SPOS 
68, SPOS 
56, SPOS 
34, SPOS 
35, SPOS 
** ... 28 like lines cut
** Surfaces based on fix1
*SURFACE, NAME=fix1
** Surfaces based on S8R
*SURFACE, NAME=S8R

*MATERIAL,NAME=steel
*ELASTIC
2.0000E+11,0.28
*DENSITY
7.8500E+03
*EXPANSION
1.3000E-05


** default amplitude
*AMPLITUDE,NAME=Amp0
0,0,1,1

*AMPLITUDE,NAME=Graph1
0,0,
0.5,1,

*AMPLITUDE,NAME=Graph2
0,0,
0.5,1,

*SHELL SECTION,MATERIAL=steel,ELSET=Eall,,OFFSET=0.0000E+00
1.0000E-02

*BOUNDARY
fix1,2,2,0
fix1,3,3,0

*BOUNDARY
fix2,2,2,0
fix2,3,3,0



*STEP,NLGEOM,INC=100
*STATIC
0.1,1
*DLOAD,AMPLITUDE=graph2,TIME DELAY=0.5
** Pressure based on load
69, P, 1.000000e+05
33, P, 1.000000e+05
80, P, 1.000000e+05
44, P, 1.000000e+05
57, P, 1.000000e+05
45, P, 1.000000e+05
70, P, 1.000000e+05
71, P, 1.000000e+05
72, P, 1.000000e+05
73, P, 1.000000e+05
74, P, 1.000000e+05
75, P, 1.000000e+05
76, P, 1.000000e+05
77, P, 1.000000e+05
78, P, 1.000000e+05
79, P, 1.000000e+05
68, P, 1.000000e+05
56, P, 1.000000e+05
34, P, 1.000000e+05
35, P, 1.000000e+05
** ... 28 like lines cut

*BOUNDARY,AMPLITUDE=graph1,TIME DELAY=0
fix1,5,5,-1

*BOUNDARY,AMPLITUDE=graph1,TIME DELAY=0
fix2,5,5,1

  *NODE FILE 
U,
  *EL FILE
S,
*NODE PRINT,NSET=fix1
RF
*NODE PRINT,NSET=fix2
RF
*NODE PRINT,NSET=fix1
RF
*NODE PRINT,NSET=fix2
RF
*END STEP
