** written by FreeCAD inp file writer for CalculiX,Abaqus meshes
** highest dimension mesh elements only.

** Nodes
*Node, NSET=Nall
1, 10, 38.29800033569, -3
2, 10, 38.29800033569, 3
3, 10, 219.2089996338, 3
4, 10, 219.2089996338, -3
5, 15.93727544171, 20.38188332645, -3
6, 15.93727544171, 20.38188332645, 3
7, 12.27542083209, 228.4743914728, -3
8, 12.27542083209, 228.4743914728, 3
9, -16.50648713688, 21.75357132085, -3
10, -12.27542083209, 228.4743914728, -3
11, -10, 219.2089996338, -3
12, -10, 40.40900039673, -3
13, -16.50648713688, 21.75357132085, 3
14, -12.27542083209, 228.4743914728, 3
15, -10, 219.2089996338, 3
16, -10, 40.40900039673, 3
17, -18.39699935913, -16.42099952697, -5
18, -18.39699935913, -16.42099952697, 5
19, 5.510000228882, -23.72999954223, 5
20, 5.510000228882, -23.72999954223, -5
** ... 10366 like lines cut


** Volume elements
*Element, TYPE=C3D10, ELSET=Evolumes
4000, 1506, 317, 1034, 1033, 1922, 6947, 6948, 6950, 6949, 1036
4001, 1602, 1517, 831, 2895, 1728, 6951, 6952, 6954, 6953, 6955
4002, 1034, 451, 1506, 1033, 6957, 6956, 6948, 1036, 6958, 6950
4003, 5653, 6891, 6902, 6909, 6961, 6959, 6960, 6963, 6962, 6964
4004, 6894, 5626, 6897, 6905, 6967, 6965, 6966, 6969, 6968, 6970
4005, 5148, 6894, 6897, 6905, 6972, 6966, 6971, 6973, 6969, 6970
4006, 5633, 5556, 6889, 6908, 5838, 6974, 6975, 6977, 6976, 6978
4007, 6897, 433, 298, 6916, 6981, 6979, 6980, 6983, 6982, 6984
4008, 300, 436, 301, 6900, 6986, 6985, 309, 6988, 6987, 6989
4009, 300, 435, 6900, 6916, 6991, 6990, 6988, 6993, 6992, 6994
4010, 5566, 6888, 6928, 6929, 6997, 6995, 6996, 6999, 6998, 7000
4011, 6900, 436, 301, 6922, 6987, 6985, 6989, 7002, 7001, 7003
4012, 6905, 5626, 6897, 6912, 6968, 6965, 6970, 7005, 7004, 7006
4013, 6897, 5148, 6905, 6912, 6971, 6973, 6970, 7006, 7007, 7005
4014, 6894, 432, 1359, 6897, 7010, 7008, 7009, 6966, 7011, 7012
4015, 1359, 297, 6894, 6897, 7014, 7013, 7009, 7012, 7015, 6966
4016, 5169, 5095, 6894, 6897, 5515, 7016, 7017, 7019, 7018, 6966
4017, 5573, 5647, 6894, 6897, 5993, 7020, 7021, 7023, 7022, 6966
4018, 297, 5169, 6894, 6897, 7024, 7017, 7013, 7015, 7019, 6966
4019, 6894, 5647, 432, 6897, 7020, 7025, 7010, 6966, 7022, 7011
** ... 5079 like lines cut

** Define element set Eall
*ELSET, ELSET=Eall
Evolumes



***********************************************************
** Element sets for materials and FEM element type (solid, shell, beam, fluid)
** written by write_element_sets_material_and_femelement_type function
*ELSET,ELSET=SolidMaterialSolid
Evolumes

***********************************************************
** Node sets for prescribed displacement constraint
** written by write_node_sets_constraints_displacement function
** FemConstraintDisplacement
*NSET,NSET=FemConstraintDisplacement
6059,
6060,
6061,
17,
18,
19,
20,
6062,
23,
24,
25,
26,
6063,
6064,
6065,
6049,
6066,
6067,
567,
568,
** ... 174 like lines cut

***********************************************************
** Materials
** written by write_materials function
** Young's modulus unit is MPa = N/mm2
** FreeCAD material name: CalculiX-Steel
** SolidMaterial
*MATERIAL, NAME=SolidMaterial
*ELASTIC
210000, 0.300

***********************************************************
** Sections
** written by write_femelementsets function
*SOLID SECTION, ELSET=SolidMaterialSolid, MATERIAL=SolidMaterial

***********************************************************
** At least one step is needed to run an CalculiX analysis of FreeCAD
** written by write_step_begin function
*STEP
*STATIC


***********************************************************
** Displacement constraint applied
** written by write_constraints_displacement function
** FemConstraintDisplacement
*BOUNDARY
FemConstraintDisplacement,1
FemConstraintDisplacement,2
FemConstraintDisplacement,3


***********************************************************
** Element + CalculiX face + load in [MPa]
** written by write_constraints_pressure function
** FemConstraintPressure
*DLOAD
** FemConstraintPressure: face load
6252,P3,10000.0
6253,P4,10000.0
6271,P1,10000.0
6272,P3,10000.0
6298,P2,10000.0
6299,P1,10000.0
6305,P4,10000.0
6306,P1,10000.0
6317,P3,10000.0
6318,P3,10000.0
6323,P3,10000.0
6324,P3,10000.0
6344,P3,10000.0
6345,P2,10000.0
6395,P1,10000.0
6396,P4,10000.0
6423,P3,10000.0
6424,P2,10000.0
6457,P4,10000.0
6458,P1,10000.0
** ... 162 like lines cut

***********************************************************
** Outputs --> frd file
** written by write_outputs_types function
*NODE FILE
U
*EL FILE
S, E
** outputs --> dat file
*NODE PRINT , NSET=Nall
U 
*EL PRINT , ELSET=Eall
S 

***********************************************************
** written by write_step_end function
*END STEP 

***********************************************************
** CalculiX Input file
** written by write_footer function
**   written by    --> FreeCAD 0.17.13528 (Git)
**   written on    --> Thu Sep 13 18:00:12 2018
**   file name     --> Spanner.FCStd
**   analysis name --> Analysis
**
**
**
**   Units
**
**   Geometry (mesh data)        --> mm
**   Materials (Young's modulus) --> N/mm2 = MPa
**   Loads (nodal loads)         --> N
**
